
 ANSYS Multiphysics                                


 *------------------------------------------------------------------*
 |                                                                  |
 |   W E L C O M E   T O   T H E   A N S Y S (R)  P R O G R A M     |
 |                                                                  |
 *------------------------------------------------------------------*




 ***************************************************************
 *            ANSYS Release 17.2     LEGAL NOTICES             *
 ***************************************************************
 *                                                             *
 * Copyright 2016 SAS IP, Inc.  All rights reserved.           *
 * Unauthorized use, distribution or duplication is            *
 * prohibited.                                                 *
 *                                                             *
 * Ansys is a registered trademark of ANSYS, Inc. or its       *
 * subsidiaries in the United States or other countries.       *
 * See the ANSYS, Inc. online documentation or the ANSYS, Inc. *
 * documentation CD or online help for the complete Legal      *
 * Notice.                                                     *
 *                                                             *
 ***************************************************************
 *                                                             *
 * THIS ANSYS SOFTWARE PRODUCT AND PROGRAM DOCUMENTATION       *
 * INCLUDE TRADE SECRETS AND CONFIDENTIAL AND PROPRIETARY      *
 * PRODUCTS OF ANSYS, INC., ITS SUBSIDIARIES, OR LICENSORS.    *
 * The software products and documentation are furnished by    *
 * ANSYS, Inc. or its subsidiaries under a software license    *
 * agreement that contains provisions concerning               *
 * non-disclosure, copying, length and nature of use,          *
 * compliance with exporting laws, warranties, disclaimers,    *
 * limitations of liability, and remedies, and other           *
 * provisions.  The software products and documentation may be *
 * used, disclosed, transferred, or copied only in accordance  *
 * with the terms and conditions of that software license      *
 * agreement.                                                  *
 *                                                             *
 * ANSYS, Inc. is a UL registered                              *
 * ISO 9001:2008 company.                                      *
 *                                                             *
 ***************************************************************
 *                                                             *
 * This product is subject to U.S. laws governing export and   *
 * re-export.                                                  *
 *                                                             *
 * For U.S. Government users, except as specifically granted   *
 * by the ANSYS, Inc. software license agreement, the use,     *
 * duplication, or disclosure by the United States Government  *
 * is subject to restrictions stated in the ANSYS, Inc.        *
 * software license agreement and FAR 12.212 (for non-DOD      *
 * licenses).                                                  *
 *                                                             *
 ***************************************************************

 Release 17.2
     
 Point Releases and Patches installed:   
     
 ANSYS, Inc. Products Release 17.2   
 ANSYS Mechanical Products Release 17.2  
 ANSYS Autodyn Release 17.2  
 ANSYS LS-DYNA Release 17.2  
 ANSYS AIM Release 17.2  
 ANSYS CFX (includes ANSYS CFD-Post) Release 17.2
 ANSYS Fluent (includes ANSYS CFD-Post) Release 17.2 
 ANSYS TurboGrid Release 17.2
 ANSYS Polyflow (includes ANSYS CFD-Post) Release 17.2   
 ANSYS Forte Release 17.2
 ANSYS Chemkin Release 17.2  
 ANSYS ICEM CFD Release 17.2 
 ANSYS Aqwa Release 17.2 
 ANSYS Composite PrepPost Release 17.2   
 ANSYS Icepak (includes ANSYS CFD-Post) Release 17.2 
 AutoCAD Release 17.2
 ACIS Release 17.2   
 Catia, Version 4 Release 17.2   
 Catia, Version 6 Release 17.2   
 Creo Elements/Direct Modeling Release 17.2  
 Inventor Release 17.2   
 JTOpen Release 17.2 
 NX Release 17.2 
 Parasolid Release 17.2  
 Creo Parametric (formerly Pro/ENGINEER) Release 17.2
 Solid Edge Release 17.2 
 SolidWorks Release 17.2 
 ANSYS, Inc. License Manager Release 17.2


          *****  ANSYS COMMAND LINE ARGUMENTS  *****
  BATCH MODE REQUESTED (-b)    = LIST
  INPUT FILE COPY MODE (-c)    = COPY

 RELEASE= Release 17.2         BUILD= 17.2      UP20160718   VERSION=WINDOWS x64 
 CURRENT JOBNAME=file  12:35:10  MAY 02, 2022 CP=      0.766

     1  /batch  
     2  /filename, Root_Cycle_FZ
     3      
     4  !   
     5  *CREATE,res1
     6  *cfopen,Results_StressesOnly,txt,,append
     7  *vwrite,nx,ny,nz,ux,uy,uz   
     8  (F11.7,',',F11.7,',',F11.7,',',F13.11,',',F13.11,',',F13.11)
     9  *cfclos 
    10  *END
    11      
    12  FINISH  
    13  /CLEAR ! ,NOSTART   
    14  /PREP7  
    15  /TRIAD,LBOT 
    16  /VIEW,1,1,1,1   
    17  /ANGLE,1
    18  /VUP,,Z 
    19  /ESHAPE,0   
    20  MP,EX,1,2.1e5   
    21  MP,PRXY,1,0.3   
    22  !nodes  
    23  N, 1, 90.475578308105, 76.320320129395, 7.5367851257324 
    24  N, 2, 91.027465820312, 75.547813415527, 8.0431022644043 
    25  N, 3, 90.349952697754, 76.320335388184, 6.4911651611328 
    26  N, 4, 90.020133972168, 75.182884216309, 10.402324676514 
    27  N, 5, 90.292304992676, 77.062881469727, 6.0120124816895 
    28  N, 6, 89.698600769043, 75.49129486084, 10.943325042725  
    29  N, 7, 90.83145904541, 78.716705322266, 4.9148788452148  
    30  N, 8, 89.672134399414, 76.121284484863, 10.489555358887 
    31  N, 9, 91.116264343262, 78.594039916992, 6.9767990112305 
    32  N, 10, 90.807472229004, 78.239837646484, 8.9865303039551
    33  N, 11, 90.526565551758, 75.893211364746, 6.3813781738281
    34  N, 12, 91.162170410156, 74.226577758789, 13.142688751221
    35  N, 13, 92.725868225098, 75.177696228027, 6.9586181640625
    36  N, 14, 89.393676757812, 75.744735717773, 5.7434158325195
    37  N, 15, 90.554733276367, 75.061279296875, 5.4146728515625
    38  N, 16, 90.099578857422, 74.985870361328, 5.5117874145508
    39  N, 17, 90.225387573242, 74.881477355957, 11.985061645508
    40  N, 18, 90.102378845215, 77.823471069336, 4.5880699157715
    41  N, 19, 89.638687133789, 76.621505737305, 5.5940475463867
    42  N, 20, 89.942604064941, 77.991317749023, 12.582145690918
    43  N, 21, 90.121147155762, 76.299606323242, 13.706008911133
    44  N, 22, 89.878753662109, 76.310211181641, 12.582298278809
    45  N, 23, 90.818092346191, 80.22233581543, 4.3927764892578 
    46  N, 24, 90.231826782227, 79.94108581543, 3.3410530090332 
    47  N, 25, 90.296318054199, 81.905754089355, 3.1997489929199
    48  N, 26, 91.11304473877, 79.111991882324, 8.0553550720215 
    49  N, 27, 92.553672790527, 74.940414428711, 4.9713249206543
    50  N, 28, 94.73274230957, 73.232231140137, 11.216156005859 
    51  N, 29, 90.860862731934, 75.587608337402, 14.943534851074
    52  N, 30, 93.917304992676, 72.544807434082, 15.452041625977
    53  N, 31, 92.460945129395, 73.216117858887, 16.087306976318
    54  N, 32, 95.213363647461, 73.174308776855, 6.4360122680664
    55  N, 33, 88.849433898926, 74.610862731934, 5.7159576416016
    56  N, 34, 88.84871673584, 76.132965087891, 5.603588104248  
    57  N, 35, 92.412460327148, 73.830268859863, 3.8768768310547
    58  N, 36, 93.192718505859, 73.845031738281, 3.8650512695312
    59  N, 37, 87.402786254883, 69.853958129883, 5.5767593383789
    60  N, 38, 90.696403503418, 72.948013305664, 4.9280967712402
    61  N, 39, 88.622161865234, 69.834449768066, 5.5877532958984
    62  N, 40, 89.414215087891, 78.287422180176, 3.9096984863281
    63  N, 41, 89.543395996094, 78.533325195312, 14.81814956665 
    64  N, 42, 90.857566833496, 80.242408752441, 9.2276191711426
    65  N, 43, 88.964897155762, 79.210601806641, 18.747505187988
    66  N, 44, 90.436950683594, 82.46044921875, 7.5794525146484 
    67  N, 45, 89.572807312012, 83.035133361816, 2.3073616027832
    68  N, 46, 88.845573425293, 81.683944702148, 2.2551116943359
    69  N, 47, 89.198791503906, 82.069343566895, 2.1886138916016
    70  N, 48, 89.659957885742, 84.423347473145, 3.9422225952148
    71  N, 49, 89.666709899902, 83.877143859863, 2.7738914489746
    72  N, 50, 94.208854675293, 73.835014343262, 4.8957176208496
    73  N, 51, 94.650695800781, 72.602478027344, 13.832679748535
    74  N, 52, 95.882141113281, 72.16291809082, 9.7504806518555 
    75  N, 53, 92.483489990234, 73.229972839355, 16.80884552002 
    76  N, 54, 91.923667907715, 75.477882385254, 17.891254425049
    77  N, 55, 94.251045227051, 71.622970581055, 17.083908081055
    78  N, 56, 94.741889953613, 72.699058532715, 3.867546081543 
    79  N, 57, 95.809555053711, 72.036392211914, 6.2653579711914
    80  N, 58, 86.851425170898, 76.582290649414, 5.5674667358398
    81  N, 59, 86.610847473145, 72.928009033203, 5.910701751709 
    82  N, 60, 84.338485717773, 74.617263793945, 6.5054016113281
    83  N, 61, 87.905586242676, 78.154685974121, 4.3873596191406
    84  N, 62, 92.463684082031, 72.687950134277, 3.3339920043945
    85  N, 63, 94.18627166748, 72.692092895508, 3.3346977233887 
    86  N, 64, 88.833396911621, 69.025527954102, 5.2533531188965
    87  N, 65, 85.489372253418, 70.166725158691, 5.2707443237305
    88  N, 66, 87.402679443359, 68.15567779541, 4.4772796630859 
    89  N, 67, 89.845603942871, 69.569793701172, 5.084156036377 
    90  N, 68, 91.911819458008, 70.946197509766, 3.3387908935547
    91  N, 69, 88.509658813477, 79.885452270508, 18.201633453369
    92  N, 70, 89.638031005859, 83.268013000488, 9.9881858825684
    93  N, 71, 88.124588012695, 81.324859619141, 17.008270263672
    94  N, 72, 88.544815063477, 83.311294555664, 13.417858123779
    95  N, 73, 91.957855224609, 76.067520141602, 19.473564147949
    96  N, 74, 87.505836486816, 81.123809814453, 19.848628997803
    97  N, 75, 88.144950866699, 81.232948303223, 22.110992431641
    98  N, 76, 89.238922119141, 85.151351928711, 5.8564910888672
    99  N, 77, 88.272956848145, 83.597732543945, 1.9325675964355
   100  N, 78, 89.204696655273, 84.551567077637, 2.6253509521484
   101  N, 79, 86.185775756836, 79.273231506348, 4.9361991882324
   102  N, 80, 86.858757019043, 83.288284301758, 2.2123374938965
   103  N, 81, 86.790023803711, 82.111770629883, 2.7216339111328
   104  N, 82, 87.441589355469, 86.684455871582, 3.3196563720703
   105  N, 83, 87.500175476074, 86.184219360352, 2.7401008605957
   106  N, 84, 94.794090270996, 70.588768005371, 17.628311157227
   107  N, 85, 96.176864624023, 70.704452514648, 9.219123840332 
   108  N, 86, 95.966125488281, 71.269248962402, 11.473438262939
   109  N, 87, 95.307258605957, 72.15747833252, 20.073757171631 
   110  N, 88, 94.27702331543, 71.706748962402, 18.174114227295 
   111  N, 89, 95.36962890625, 71.264099121094, 4.2855377197266 
   112  N, 90, 95.84349822998, 71.058868408203, 5.5594062805176 
   113  N, 91, 83.266860961914, 77.555038452148, 6.0910453796387
   114  N, 92, 84.357284545898, 80.810859680176, 4.8641967773438
   115  N, 93, 84.924468994141, 73.50220489502, 6.3346672058105 
   116  N, 94, 80.753326416016, 77.78857421875, 6.7226600646973 
   117  N, 95, 82.232681274414, 71.823776245117, 7.725227355957 
   118  N, 96, 82.130363464355, 74.643119812012, 7.1627998352051
   119  N, 97, 79.100860595703, 71.250923156738, 9.5542793273926
   120  N, 98, 93.318008422852, 71.78328704834, 3.0092163085938 
   121  N, 99, 94.718887329102, 70.408592224121, 3.3459510803223
   122  N, 100, 89.525733947754, 66.793922424316, 5.0542297363281   
   123  N, 101, 85.675254821777, 68.250465393066, 4.4383964538574   
   124  N, 102, 84.082763671875, 72.097900390625, 6.1571617126465   
   125  N, 103, 88.024360656738, 66.407829284668, 4.4449234008789   
   126  N, 104, 90.543388366699, 69.634452819824, 4.6859512329102   
   127  N, 105, 89.945617675781, 68.452224731445, 5.1138801574707   
   128  N, 106, 93.039581298828, 69.86743927002, 3.3464698791504
   129  N, 107, 88.594207763672, 85.040138244629, 9.1676979064941   
   130  N, 108, 86.715438842773, 82.024749755859, 18.780944824219   
   131  N, 109, 86.327560424805, 85.011810302734, 14.000270843506   
   132  N, 110, 91.765853881836, 76.408668518066, 22.111164093018   
   133  N, 111, 94.22883605957, 73.85816192627, 20.476726531982 
   134  N, 112, 85.18643951416, 83.339797973633, 18.700160980225
   135  N, 113, 89.127540588379, 79.971778869629, 24.129055023193   
   136  N, 114, 82.855743408203, 84.92456817627, 16.474720001221
   137  N, 115, 84.089256286621, 84.449714660645, 22.980007171631   
   138  N, 116, 83.975219726562, 84.890853881836, 20.403961181641   
   139  N, 117, 84.878562927246, 88.445243835449, 5.8562965393066   
   140  N, 118, 86.431533813477, 84.752029418945, 2.2657814025879   
   141  N, 119, 83.435668945312, 83.170783996582, 4.9460296630859   
   142  N, 120, 81.660705566406, 86.435852050781, 4.9058952331543   
   143  N, 121, 86.591400146484, 86.6259765625, 2.8291854858398 
   144  N, 122, 85.733337402344, 87.78190612793, 3.9069328308105
   145  N, 123, 95.139266967773, 69.567398071289, 17.050735473633   
   146  N, 124, 95.333221435547, 69.378143310547, 18.385688781738   
   147  N, 125, 95.850402832031, 69.26342010498, 12.430442810059
   148  N, 126, 95.832466125488, 69.907768249512, 5.5976104736328   
   149  N, 127, 95.108016967773, 66.24626159668, 6.9585800170898
   150  N, 128, 95.614738464355, 69.022499084473, 14.262664794922   
   151  N, 129, 96.237037658691, 69.601104736328, 19.852268218994   
   152  N, 130, 95.164497375488, 72.504943847656, 21.028228759766   
   153  N, 131, 97.571212768555, 67.116333007812, 22.639266967773   
   154  N, 132, 95.233840942383, 68.24861907959, 4.5041160583496
   155  N, 133, 83.247329711914, 80.801414489746, 5.4108810424805   
   156  N, 134, 82.906196594238, 71.250030517578, 7.2146148681641   
   157  N, 135, 77.437789916992, 74.481567382812, 9.5563583374023   
   158  N, 136, 76.061149597168, 80.269844055176, 8.322338104248
   159  N, 137, 77.781959533691, 77.473655700684, 8.3072509765625   
   160  N, 138, 82.326957702637, 70.718315124512, 7.7645835876465   
   161  N, 139, 75.130004882812, 65.432769775391, 14.001052856445   
   162  N, 140, 82.359130859375, 68.695831298828, 8.3489036560059   
   163  N, 141, 79.569122314453, 60.830123901367, 11.164848327637   
   164  N, 142, 80.108261108398, 67.909271240234, 9.4713325500488   
   165  N, 143, 94.770797729492, 68.641632080078, 3.8735313415527   
   166  N, 144, 91.071571350098, 65.076164245605, 5.4759216308594   
   167  N, 145, 83.636077880859, 69.582931518555, 5.7251052856445   
   168  N, 146, 85.71019744873, 66.995887756348, 4.4483489990234
   169  N, 147, 84.618995666504, 67.581153869629, 5.0118217468262   
   170  N, 148, 83.522987365723, 70.985710144043, 6.1412086486816   
   171  N, 149, 87.70384979248, 66.00318145752, 4.5044136047363 
   172  N, 150, 86.585525512695, 66.067855834961, 4.5612335205078   
   173  N, 151, 93.311050415039, 66.806884765625, 4.5733528137207   
   174  N, 152, 92.198272705078, 65.139999389648, 5.2394409179688   
   175  N, 153, 86.864448547363, 86.107635498047, 10.608860015869   
   176  N, 154, 84.888870239258, 84.135604858398, 16.522510528564   
   177  N, 155, 85.126121520996, 85.526298522949, 13.942512512207   
   178  N, 156, 91.559577941895, 76.344337463379, 23.820064544678   
   179  N, 157, 88.72240447998, 80.122123718262, 24.879661560059
   180  N, 158, 89.693023681641, 78.854934692383, 25.237300872803   
   181  N, 159, 79.572570800781, 87.254341125488, 15.804004669189   
   182  N, 160, 83.799545288086, 84.655044555664, 15.952808380127   
   183  N, 161, 80.20629119873, 86.195915222168, 11.467113494873
   184  N, 162, 82.131561279297, 85.211135864258, 14.84342956543
   185  N, 163, 79.301918029785, 87.402137756348, 20.968460083008   
   186  N, 164, 84.862403869629, 83.435417175293, 24.280040740967   
   187  N, 165, 82.634689331055, 84.792846679688, 23.758735656738   
   188  N, 166, 83.829040527344, 83.223121643066, 25.640594482422   
   189  N, 167, 77.082832336426, 89.204574584961, 18.205337524414   
   190  N, 168, 84.386352539062, 88.325454711914, 4.5114288330078   
   191  N, 169, 84.627182006836, 88.356994628906, 7.2546005249023   
   192  N, 170, 82.669288635254, 88.57332611084, 5.8561630249023
   193  N, 171, 81.89525604248, 88.395660400391, 7.305736541748 
   194  N, 172, 82.484832763672, 87.677764892578, 4.5192375183105   
   195  N, 173, 85.69425201416, 86.191474914551, 2.7499122619629
   196  N, 174, 80.08243560791, 85.487594604492, 6.0947494506836
   197  N, 175, 77.937118530273, 83.90153503418, 7.2634658813477
   198  N, 176, 81.566230773926, 87.506042480469, 4.8091125488281   
   199  N, 177, 84.384132385254, 87.872550964355, 3.8725318908691   
   200  N, 178, 95.619850158691, 66.224754333496, 14.260749816895   
   201  N, 179, 95.230278015137, 66.260772705078, 13.555595397949   
   202  N, 180, 97.367332458496, 66.846237182617, 18.744781494141   
   203  N, 181, 94.678894042969, 66.55167388916, 10.371379852295
   204  N, 182, 94.827568054199, 66.216201782227, 5.4426765441895   
   205  N, 183, 94.415107727051, 65.659446716309, 10.900241851807   
   206  N, 184, 95.160591125488, 65.791259765625, 5.8530693054199   
   207  N, 185, 94.817367553711, 65.672958374023, 8.5881767272949   
   208  N, 186, 95.219657897949, 65.773429870605, 6.9955253601074   
   209  N, 187, 98.089958190918, 64.271636962891, 26.329746246338   
   210  N, 188, 94.709518432617, 71.53759765625, 24.623668670654
   211  N, 189, 101.77309417725, 60.060356140137, 18.748683929443   
   212  N, 190, 102.11388397217, 58.958190917969, 21.013580322266   
   213  N, 191, 93.911773681641, 65.656150817871, 5.0498962402344   
   214  N, 192, 73.142608642578, 80.800682067871, 9.0532989501953   
   215  N, 193, 69.072731018066, 68.317161560059, 15.725238800049   
   216  N, 194, 66.255859375, 75.00390625, 14.031341552734  
   217  N, 195, 74.859237670898, 84.418159484863, 7.2306442260742   
   218  N, 196, 83.68424987793, 66.18579864502, 7.3755645751953 
   219  N, 197, 83.531547546387, 68.217872619629, 6.1615715026855   
   220  N, 198, 79.07991027832, 57.777050018311, 12.378795623779
   221  N, 199, 71.216873168945, 59.837036132812, 17.382392883301   
   222  N, 200, 74.81706237793, 59.488697052002, 15.359264373779
   223  N, 201, 82.345756530762, 64.113739013672, 8.3529968261719   
   224  N, 202, 83.043479919434, 65.659454345703, 7.8644905090332   
   225  N, 203, 83.484687805176, 52.971927642822, 10.042720794678   
   226  N, 204, 89.388519287109, 64.722145080566, 6.0286521911621   
   227  N, 205, 90.878273010254, 64.166542053223, 5.6094360351562   
   228  N, 206, 90.509651184082, 63.98030090332, 5.7132110595703
   229  N, 207, 85.796058654785, 65.97745513916, 5.057991027832 
   230  N, 208, 84.314521789551, 65.54069519043, 7.3498153686523
   231  N, 209, 86.550788879395, 64.363960266113, 7.3051261901855   
   232  N, 210, 94.020294189453, 64.903503417969, 4.9552307128906   
   233  N, 211, 92.722999572754, 63.405166625977, 4.8609390258789   
   234  N, 212, 83.789581298828, 88.299209594727, 7.7313919067383   
   235  N, 213, 93.579277038574, 72.077407836914, 26.285579681396   
   236  N, 214, 88.56217956543, 78.281814575195, 28.007083892822
   237  N, 215, 86.449211120605, 79.494834899902, 28.675678253174   
   238  N, 216, 89.071060180664, 76.529487609863, 29.062282562256   
   239  N, 217, 79.890098571777, 86.965950012207, 12.582897186279   
   240  N, 218, 77.215354919434, 89.361808776855, 17.664142608643   
   241  N, 219, 79.422500610352, 87.560279846191, 14.816581726074   
   242  N, 220, 83.260131835938, 85.311370849609, 14.277484893799   
   243  N, 221, 82.639724731445, 87.96662902832, 8.1346549987793
   244  N, 222, 81.005729675293, 85.599220275879, 12.510131835938   
   245  N, 223, 79.618865966797, 88.640098571777, 12.955081939697   
   246  N, 224, 80.674011230469, 86.118072509766, 10.590190887451   
   247  N, 225, 80.722648620605, 87.183692932129, 9.4882354736328   
   248  N, 226, 77.835914611816, 86.636337280273, 24.013526916504   
   249  N, 227, 74.246795654297, 90.807998657227, 18.789165496826   
   250  N, 228, 75.09309387207, 90.031196594238, 21.263427734375
   251  N, 229, 72.228828430176, 91.693290710449, 19.912326812744   
   252  N, 230, 77.615165710449, 82.972221374512, 28.852573394775   
   253  N, 231, 85.215423583984, 79.40926361084, 29.695026397705
   254  N, 232, 75.529968261719, 90.523048400879, 17.819522857666   
   255  N, 233, 81.805931091309, 88.363273620605, 5.0217933654785   
   256  N, 234, 81.778793334961, 88.866661071777, 5.8288764953613   
   257  N, 235, 81.549705505371, 88.086723327637, 8.1505508422852   
   258  N, 236, 81.581588745117, 89.20825958252, 5.2968215942383
   259  N, 237, 81.387878417969, 88.634155273438, 7.9974517822266   
   260  N, 238, 81.45573425293, 89.185882568359, 7.5124931335449
   261  N, 239, 80.727996826172, 88.348693847656, 4.431037902832
   262  N, 240, 77.069290161133, 86.981285095215, 5.7199516296387   
   263  N, 241, 78.93132019043, 88.854804992676, 3.8270874023438
   264  N, 242, 99.788375854492, 63.169212341309, 17.85835647583
   265  N, 243, 94.736175537109, 64.832275390625, 11.737968444824   
   266  N, 244, 96.773056030273, 63.540412902832, 13.719211578369   
   267  N, 245, 94.974754333496, 65.313316345215, 5.1323394775391   
   268  N, 246, 94.719779968262, 64.827323913574, 10.02713394165
   269  N, 247, 98.528419494629, 64.728637695312, 6.4164047241211   
   270  N, 248, 95.011360168457, 65.020401000977, 4.827075958252
   271  N, 249, 97.784149169922, 64.908012390137, 4.7509078979492   
   272  N, 250, 97.517990112305, 64.815757751465, 8.3743019104004   
   273  N, 251, 100.90023803711, 55.320400238037, 30.278301239014   
   274  N, 252, 100.22859954834, 55.146244049072, 32.322521209717   
   275  N, 253, 102.01132965088, 59.228984832764, 17.884910583496   
   276  N, 254, 103.16152191162, 53.145320892334, 23.187164306641   
   277  N, 255, 103.13715362549, 55.324138641357, 16.745063781738   
   278  N, 256, 104.22061920166, 50.76110458374, 19.33963394165 
   279  N, 257, 62.707889556885, 77.121002197266, 13.964263916016   
   280  N, 258, 68.618087768555, 82.821662902832, 9.5579223632812   
   281  N, 259, 68.301322937012, 65.868774414062, 16.75760269165
   282  N, 260, 69.182968139648, 62.805168151855, 17.425777435303   
   283  N, 261, 62.138652801514, 74.841354370117, 15.078102111816   
   284  N, 262, 56.846549987793, 71.78833770752, 17.218753814697
   285  N, 263, 72.812835693359, 86.647758483887, 6.6855735778809   
   286  N, 264, 68.645690917969, 86.391288757324, 8.022388458252
   287  N, 265, 76.381248474121, 55.532108306885, 15.217819213867   
   288  N, 266, 77.355491638184, 51.954647064209, 15.675640106201   
   289  N, 267, 72.410186767578, 57.209182739258, 17.457908630371   
   290  N, 268, 71.769493103027, 56.470169067383, 18.494167327881   
   291  N, 269, 84.663375854492, 60.936790466309, 7.8299331665039   
   292  N, 270, 88.050849914551, 63.026519775391, 7.2677688598633   
   293  N, 271, 84.12085723877, 48.247951507568, 10.694011688232
   294  N, 272, 85.451072692871, 58.360832214355, 8.124942779541
   295  N, 273, 86.255752563477, 46.051914215088, 9.455379486084
   296  N, 274, 84.926826477051, 52.725631713867, 9.2731399536133   
   297  N, 275, 87.799446105957, 47.724620819092, 8.3027114868164   
   298  N, 276, 89.131378173828, 64.274108886719, 6.6920700073242   
   299  N, 277, 90.707397460938, 62.612174987793, 4.4538764953613   
   300  N, 278, 89.048294067383, 63.214492797852, 6.6177787780762   
   301  N, 279, 88.001510620117, 60.892974853516, 5.0221557617188   
   302  N, 280, 88.050575256348, 63.771980285645, 7.2712440490723   
   303  N, 281, 96.41471862793, 64.241752624512, 3.9101905822754
   304  N, 282, 91.271293640137, 60.821868896484, 3.912353515625
   305  N, 283, 97.383003234863, 62.265586853027, 3.2739601135254   
   306  N, 284, 92.782775878906, 61.145820617676, 4.2769355773926   
   307  N, 285, 93.877136230469, 61.17552947998, 4.2065505981445
   308  N, 286, 93.270324707031, 67.826126098633, 30.468143463135   
   309  N, 287, 95.36449432373, 65.492263793945, 29.7727394104  
   310  N, 288, 86.43936920166, 76.700119018555, 31.454685211182
   311  N, 289, 87.987518310547, 68.734916687012, 35.837070465088   
   312  N, 290, 86.239379882812, 70.352806091309, 36.348880767822   
   313  N, 291, 79.54988861084, 91.111122131348, 11.688488006592
   314  N, 292, 76.209838867188, 93.953186035156, 12.847007751465   
   315  N, 293, 77.924072265625, 91.756240844727, 14.014045715332   
   316  N, 294, 80.725929260254, 90.66121673584, 9.548885345459 
   317  N, 295, 74.979827880859, 88.838920593262, 23.410209655762   
   318  N, 296, 72.556083679199, 92.171424865723, 15.943737030029   
   319  N, 297, 73.695083618164, 91.570869445801, 17.118873596191   
   320  N, 298, 73.444770812988, 90.614776611328, 21.849224090576   
   321  N, 299, 71.472030639648, 92.099807739258, 16.506675720215   
   322  N, 300, 69.765274047852, 91.900054931641, 21.549835205078   
   323  N, 301, 68.127212524414, 92.916007995605, 19.329219818115   
   324  N, 302, 66.969299316406, 93.095458984375, 20.990081787109   
   325  N, 303, 79.260047912598, 80.618125915527, 30.915386199951   
   326  N, 304, 70.839820861816, 85.715606689453, 29.376194000244   
   327  N, 305, 69.812316894531, 83.755935668945, 32.351497650146   
   328  N, 306, 76.79460144043, 74.354507446289, 38.652812957764
   329  N, 307, 81.434715270996, 88.646827697754, 4.8535308837891   
   330  N, 308, 81.284355163574, 91.210983276367, 6.795482635498
   331  N, 309, 81.50757598877, 90.881996154785, 5.2970771789551
   332  N, 310, 80.596824645996, 90.726165771484, 2.2870445251465   
   333  N, 311, 76.799476623535, 90.060134887695, 4.4627799987793   
   334  N, 312, 71.503616333008, 92.03630065918, 5.4526062011719
   335  N, 313, 73.982604980469, 92.285438537598, 4.4544525146484   
   336  N, 314, 80.216842651367, 90.58332824707, 2.2093544006348
   337  N, 315, 79.540397644043, 90.587684631348, 2.2149505615234   
   338  N, 316, 99.238151550293, 61.510070800781, 16.178821563721   
   339  N, 317, 101.47932434082, 59.830024719238, 17.303443908691   
   340  N, 318, 97.244537353516, 63.299819946289, 13.181819915771   
   341  N, 319, 98.805221557617, 61.67073059082, 15.372436523438
   342  N, 320, 98.129920959473, 64.844497680664, 4.943675994873
   343  N, 321, 98.633453369141, 63.683975219727, 10.607841491699   
   344  N, 322, 99.323715209961, 63.802787780762, 4.7689666748047   
   345  N, 323, 99.675407409668, 63.640182495117, 6.4169311523438   
   346  N, 324, 96.698783874512, 64.871444702148, 4.3741836547852   
   347  N, 325, 97.590721130371, 64.836006164551, 4.4254875183105   
   348  N, 326, 100.90254211426, 52.525260925293, 33.636882781982   
   349  N, 327, 104.89363861084, 48.303890228271, 24.332248687744   
   350  N, 328, 104.87855529785, 45.457141876221, 29.916255950928   
   351  N, 329, 97.479629516602, 59.724655151367, 31.867870330811   
   352  N, 330, 99.140724182129, 55.21460723877, 34.088901519775
   353  N, 331, 102.67001342773, 53.73416519165, 14.434288024902
   354  N, 332, 104.24025726318, 50.782196044922, 17.429168701172   
   355  N, 333, 103.1862487793, 51.040546417236, 12.7614402771  
   356  N, 334, 106.6139831543, 44.902198791504, 18.781295776367
   357  N, 335, 104.61907196045, 48.859619140625, 15.414253234863   
   358  N, 336, 65.86124420166, 83.069152832031, 9.9080963134766
   359  N, 337, 61.660808563232, 76.598655700684, 14.560214996338   
   360  N, 338, 59.921672821045, 80.489952087402, 12.844573974609   
   361  N, 339, 60.301517486572, 78.033042907715, 14.289882659912   
   362  N, 340, 68.086532592773, 84.689079284668, 8.8150329589844   
   363  N, 341, 65.119094848633, 60.994956970215, 20.217132568359   
   364  N, 342, 62.419956207275, 65.062355041504, 19.144805908203   
   365  N, 343, 66.787178039551, 58.195686340332, 20.776695251465   
   366  N, 344, 56.864963531494, 74.052536010742, 16.551120758057   
   367  N, 345, 61.443180084229, 76.289070129395, 14.911178588867   
   368  N, 346, 60.822872161865, 75.204902648926, 15.377502441406   
   369  N, 347, 58.601634979248, 63.556060791016, 21.710922241211   
   370  N, 348, 54.626499176025, 73.496170043945, 17.091594696045   
   371  N, 349, 54.082057952881, 66.781517028809, 20.99157333374
   372  N, 350, 53.562911987305, 71.968971252441, 17.845355987549   
   373  N, 351, 50.159149169922, 70.832908630371, 18.913440704346   
   374  N, 352, 68.923805236816, 90.028495788574, 7.2480888366699   
   375  N, 353, 63.084590911865, 86.101333618164, 8.3559913635254   
   376  N, 354, 65.275749206543, 90.90210723877, 6.9714889526367
   377  N, 355, 61.338024139404, 89.209632873535, 7.3130226135254   
   378  N, 356, 78.026084899902, 48.237926483154, 16.343208312988   
   379  N, 357, 79.550842285156, 44.558071136475, 15.625896453857   
   380  N, 358, 79.59627532959, 43.567951202393, 16.239921569824
   381  N, 359, 74.031814575195, 52.581214904785, 17.953769683838   
   382  N, 360, 68.621253967285, 51.592998504639, 23.201602935791   
   383  N, 361, 71.82056427002, 48.80931854248, 21.327289581299 
   384  N, 362, 86.472549438477, 60.046203613281, 7.3814544677734   
   385  N, 363, 80.544563293457, 42.67497253418, 14.910690307617
   386  N, 364, 86.007499694824, 57.175777435303, 8.0686798095703   
   387  N, 365, 86.895416259766, 32.935066223145, 10.079277038574   
   388  N, 366, 81.317687988281, 37.040702819824, 14.568256378174   
   389  N, 367, 83.689727783203, 34.27059173584, 12.467384338379
   390  N, 368, 89.232131958008, 49.381591796875, 7.8468284606934   
   391  N, 369, 88.082565307617, 51.037170410156, 7.892650604248
   392  N, 370, 88.890914916992, 42.106899261475, 8.2547492980957   
   393  N, 371, 89.724067687988, 48.687816619873, 7.8239364624023   
   394  N, 372, 91.194473266602, 44.903175354004, 6.5820007324219   
   395  N, 373, 91.645240783691, 47.758750915527, 7.0307731628418   
   396  N, 374, 92.711921691895, 46.646129608154, 6.3032875061035   
   397  N, 375, 87.975410461426, 59.826377868652, 4.453800201416
   398  N, 376, 98.639228820801, 63.126777648926, 3.3531494140625   
   399  N, 377, 89.632881164551, 57.064586639404, 3.3332481384277   
   400  N, 378, 87.877479553223, 58.374870300293, 4.3023300170898   
   401  N, 379, 98.910278320312, 61.77685546875, 3.102596282959 
   402  N, 380, 93.921905517578, 58.373058319092, 4.366813659668
   403  N, 381, 92.469520568848, 55.833839416504, 3.8952026367188   
   404  N, 382, 98.536018371582, 58.928943634033, 3.3201522827148   
   405  N, 383, 95.517127990723, 58.372753143311, 4.3292694091797   
   406  N, 384, 91.329231262207, 66.815719604492, 32.983020782471   
   407  N, 385, 94.100440979004, 64.196159362793, 31.87325668335
   408  N, 386, 92.61141204834, 66.177276611328, 32.02721786499 
   409  N, 387, 84.41480255127, 73.541389465332, 35.139064788818
   410  N, 388, 85.871131896973, 69.445053100586, 37.041309356689   
   411  N, 389, 87.472724914551, 67.890258789062, 36.436580657959   
   412  N, 390, 77.274154663086, 93.343940734863, 12.780216217041   
   413  N, 391, 80.659446716309, 91.67520904541, 8.2923698425293
   414  N, 392, 75.547561645508, 94.482444763184, 12.232486724854   
   415  N, 393, 77.37345123291, 93.988670349121, 11.237148284912
   416  N, 394, 72.814926147461, 95.108757019043, 11.216876983643   
   417  N, 395, 71.506378173828, 92.350860595703, 14.767852783203   
   418  N, 396, 68.639137268066, 93.084800720215, 15.929229736328   
   419  N, 397, 69.484367370605, 92.296630859375, 12.822582244873   
   420  N, 398, 65.19157409668, 93.489608764648, 22.634845733643
   421  N, 399, 64.706657409668, 91.361000061035, 27.145122528076   
   422  N, 400, 64.125671386719, 93.482849121094, 24.300914764404   
   423  N, 401, 63.653461456299, 93.5810546875, 20.429973602295 
   424  N, 402, 66.754180908203, 93.447715759277, 17.981964111328   
   425  N, 403, 66.346839904785, 81.871772766113, 36.643848419189   
   426  N, 404, 63.575092315674, 90.181838989258, 29.267345428467   
   427  N, 405, 63.909160614014, 86.126136779785, 33.60924911499
   428  N, 406, 76.546287536621, 72.561447143555, 40.243999481201   
   429  N, 407, 66.695838928223, 78.272270202637, 39.767429351807   
   430  N, 408, 69.788276672363, 75.158485412598, 40.656169891357   
   431  N, 409, 81.291069030762, 91.291999816895, 3.2691230773926   
   432  N, 410, 81.253677368164, 91.71174621582, 5.5464706420898
   433  N, 411, 80.649398803711, 92.198905944824, 2.2763824462891   
   434  N, 412, 72.266250610352, 95.602821350098, 2.7620849609375   
   435  N, 413, 69.541053771973, 92.883171081543, 6.1447639465332   
   436  N, 414, 69.742607116699, 94.078674316406, 5.1395378112793   
   437  N, 415, 79.347015380859, 92.489723205566, 1.6756019592285   
   438  N, 416, 100.29085540771, 59.117183685303, 15.736148834229   
   439  N, 417, 101.46455383301, 55.295783996582, 14.533798217773   
   440  N, 418, 100.28363037109, 61.96662902832, 10.483066558838
   441  N, 419, 99.722007751465, 60.270378112793, 14.975017547607   
   442  N, 420, 99.201400756836, 62.58470916748, 3.3485412597656
   443  N, 421, 100.32160186768, 62.012619018555, 5.0183601379395   
   444  N, 422, 99.634666442871, 61.731079101562, 3.4687576293945   
   445  N, 423, 100.85429382324, 60.73836517334, 7.5288314819336
   446  N, 424, 104.32405853271, 44.314998626709, 32.722965240479   
   447  N, 425, 99.791702270508, 52.53381729126, 35.312877655029
   448  N, 426, 102.03929138184, 46.956516265869, 35.318279266357   
   449  N, 427, 106.00322723389, 43.819854736328, 26.615955352783   
   450  N, 428, 104.75718688965, 41.570430755615, 33.524662017822   
   451  N, 429, 94.373077392578, 60.036956787109, 34.303188323975   
   452  N, 430, 97.370468139648, 53.919193267822, 36.843418121338   
   453  N, 431, 101.4270401001, 51.29861831665, 10.666271209717 
   454  N, 432, 101.52164459229, 53.153419494629, 12.74422454834
   455  N, 433, 103.1686630249, 49.189105987549, 11.676338195801
   456  N, 434, 101.31732177734, 50.127048492432, 9.6582641601562   
   457  N, 435, 106.51393127441, 44.69994354248, 16.71369934082 
   458  N, 436, 107.63023376465, 36.856609344482, 24.752979278564   
   459  N, 437, 107.61501312256, 40.185131072998, 17.231029510498   
   460  N, 438, 107.28260803223, 42.092357635498, 18.213481903076   
   461  N, 439, 104.81830596924, 46.899677276611, 13.720310211182   
   462  N, 440, 60.210475921631, 81.690582275391, 11.817676544189   
   463  N, 441, 61.171756744385, 84.466461181641, 9.5279159545898   
   464  N, 442, 60.56759262085, 77.264701843262, 15.726192474365
   465  N, 443, 59.473720550537, 80.235969543457, 13.534240722656   
   466  N, 444, 59.369075775146, 81.051658630371, 12.779479980469   
   467  N, 445, 59.565113067627, 80.795524597168, 13.150726318359   
   468  N, 446, 59.401348114014, 78.257186889648, 15.65376663208
   469  N, 447, 57.957530975342, 79.49934387207, 14.619686126709
   470  N, 448, 58.299858093262, 78.843276977539, 15.111225128174   
   471  N, 449, 55.037799835205, 62.635871887207, 24.125984191895   
   472  N, 450, 66.605270385742, 52.963821411133, 24.005851745605   
   473  N, 451, 56.48267364502, 60.23551940918, 25.126605987549 
   474  N, 452, 58.576229095459, 75.74976348877, 16.035179138184
   475  N, 453, 56.324825286865, 76.309623718262, 16.436813354492   
   476  N, 454, 55.990695953369, 64.791725158691, 21.806858062744   
   477  N, 455, 47.89408493042, 76.881088256836, 16.377300262451
   478  N, 456, 52.372032165527, 77.255424499512, 16.262428283691   
   479  N, 457, 50.139217376709, 69.169738769531, 20.024002075195   
   480  N, 458, 51.295936584473, 65.715606689453, 22.24146270752
   481  N, 459, 47.222663879395, 72.733795166016, 17.97758102417
   482  N, 460, 47.917526245117, 74.629356384277, 17.044918060303   
   483  N, 461, 46.582176208496, 73.831665039062, 17.381771087646   
   484  N, 462, 48.8479347229, 70.484199523926, 19.599880218506 
   485  N, 463, 66.958190917969, 93.286094665527, 6.0407180786133   
   486  N, 464, 58.336818695068, 93.443382263184, 7.2634658813477   
   487  N, 465, 59.962070465088, 88.357940673828, 7.8182220458984   
   488  N, 466, 78.358306884766, 40.954261779785, 17.268089294434   
   489  N, 467, 74.106163024902, 46.571113586426, 19.692600250244   
   490  N, 468, 80.151664733887, 41.362705230713, 16.233306884766   
   491  N, 469, 65.02562713623, 48.020183563232, 28.568599700928
   492  N, 470, 67.817085266113, 44.086429595947, 27.999446868896   
   493  N, 471, 86.381362915039, 57.797218322754, 7.4113655090332   
   494  N, 472, 87.916877746582, 51.804153442383, 7.5743370056152   
   495  N, 473, 82.821273803711, 30.373600006104, 13.876323699951   
   496  N, 474, 89.614891052246, 35.422027587891, 8.330394744873
   497  N, 475, 88.288955688477, 29.773723602295, 9.7874031066895   
   498  N, 476, 80.777137756348, 33.130054473877, 16.278480529785   
   499  N, 477, 88.954872131348, 50.064804077148, 7.5551376342773   
   500  N, 478, 91.813987731934, 48.487941741943, 6.5831108093262   
   501  N, 479, 89.662742614746, 50.233791351318, 5.5436706542969   
   502  N, 480, 91.457489013672, 43.799121856689, 6.2608222961426   
   503  N, 481, 91.921615600586, 39.061191558838, 7.8062362670898   
   504  N, 482, 91.411560058594, 40.259452819824, 7.8351440429688   
   505  N, 483, 91.994659423828, 45.637626647949, 6.1991424560547   
   506  N, 484, 92.521766662598, 48.033515930176, 6.70166015625 
   507  N, 485, 93.689750671387, 47.303890228271, 5.6750221252441   
   508  N, 486, 87.407249450684, 57.390369415283, 4.9741249084473   
   509  N, 487, 88.859497070312, 56.666400909424, 3.6022720336914   
   510  N, 488, 91.076751708984, 52.206329345703, 3.0903053283691   
   511  N, 489, 90.326919555664, 51.476768493652, 3.4162750244141   
   512  N, 490, 99.898399353027, 58.934898376465, 3.7564849853516   
   513  N, 491, 93.337776184082, 53.907245635986, 3.7287940979004   
   514  N, 492, 96.469535827637, 56.346042633057, 3.9158172607422   
   515  N, 493, 94.999412536621, 53.328407287598, 3.581859588623
   516  N, 494, 95.559883117676, 55.001804351807, 3.6685485839844   
   517  N, 495, 98.140991210938, 57.849143981934, 3.3773994445801   
   518  N, 496, 92.428153991699, 64.113876342773, 32.468288421631   
   519  N, 497, 87.465911865234, 66.948715209961, 36.430866241455   
   520  N, 498, 91.640403747559, 65.133811950684, 32.783603668213   
   521  N, 499, 93.363403320312, 63.599876403809, 32.421321868896   
   522  N, 500, 77.927024841309, 71.027572631836, 40.336460113525   
   523  N, 501, 80.792007446289, 69.579483032227, 39.245433807373   
   524  N, 502, 85.250793457031, 66.442199707031, 37.554256439209   
   525  N, 503, 83.773292541504, 67.901824951172, 38.262042999268   
   526  N, 504, 80.492057800293, 92.632804870605, 5.8392333984375   
   527  N, 505, 74.009689331055, 96.213226318359, 8.3962097167969   
   528  N, 506, 77.838874816895, 94.443565368652, 7.0123863220215   
   529  N, 507, 75.193603515625, 96.268608093262, 6.371898651123
   530  N, 508, 70.583366394043, 92.873924255371, 11.776302337646   
   531  N, 509, 72.580116271973, 97.592384338379, 4.1723022460938   
   532  N, 510, 70.351989746094, 95.264526367188, 8.6003112792969   
   533  N, 511, 70.129997253418, 92.276123046875, 12.808464050293   
   534  N, 512, 68.975128173828, 92.877159118652, 12.360054016113   
   535  N, 513, 67.79931640625, 93.40795135498, 16.200378417969 
   536  N, 514, 68.345077514648, 93.351791381836, 14.859104156494   
   537  N, 515, 69.443557739258, 92.811630249023, 11.665500640869   
   538  N, 516, 60.655300140381, 95.155502319336, 23.198863983154   
   539  N, 517, 62.203197479248, 93.970558166504, 20.143402099609   
   540  N, 518, 59.052822113037, 95.721130371094, 22.129493713379   
   541  N, 519, 60.282482147217, 94.36678314209, 25.476600646973
   542  N, 520, 65.310234069824, 93.760734558105, 18.756195068359   
   543  N, 521, 67.836151123047, 96.795761108398, 12.337863922119   
   544  N, 522, 62.219020843506, 83.31861114502, 36.960987091064
   545  N, 523, 63.032230377197, 79.506240844727, 39.826747894287   
   546  N, 524, 59.687046051025, 92.449127197266, 28.174625396729   
   547  N, 525, 75.776145935059, 71.671165466309, 40.922863006592   
   548  N, 526, 65.00138092041, 78.2666015625, 40.31734085083   
   549  N, 527, 74.796516418457, 71.25732421875, 41.045352935791
   550  N, 528, 63.153316497803, 77.956649780273, 40.362407684326   
   551  N, 529, 80.149429321289, 93.415824890137, 2.7473411560059   
   552  N, 530, 79.853637695312, 92.596397399902, 1.8479537963867   
   553  N, 531, 79.605682373047, 93.987243652344, 2.7197875976562   
   554  N, 532, 77.271034240723, 95.595069885254, 2.2689247131348   
   555  N, 533, 70.89119720459, 95.942497253418, 3.620906829834 
   556  N, 534, 73.551139831543, 95.933044433594, 2.2634086608887   
   557  N, 535, 72.244499206543, 96.846885681152, 2.7508697509766   
   558  N, 536, 69.196952819824, 96.517585754395, 3.7529449462891   
   559  N, 537, 100.25553131104, 59.067546844482, 14.858295440674   
   560  N, 538, 101.28648376465, 55.545021057129, 13.168312072754   
   561  N, 539, 100.92526245117, 60.424430847168, 10.307647705078   
   562  N, 540, 100.91204833984, 58.743263244629, 12.948184967041   
   563  N, 541, 100.64081573486, 58.936466217041, 5.2943229675293   
   564  N, 542, 101.10326385498, 59.494132995605, 8.6583061218262   
   565  N, 543, 99.772453308105, 48.072940826416, 36.964382171631   
   566  N, 544, 96.457778930664, 52.027275085449, 38.110233306885   
   567  N, 545, 104.27698516846, 40.053615570068, 34.171970367432   
   568  N, 546, 106.42236328125, 37.080905914307, 29.9582862854 
   569  N, 547, 104.86112976074, 39.893295288086, 33.683116912842   
   570  N, 548, 95.238372802734, 53.571773529053, 38.061283111572   
   571  N, 549, 93.347396850586, 60.420585632324, 34.199977874756   
   572  N, 550, 93.707504272461, 56.451801300049, 36.988773345947   
   573  N, 551, 101.42112731934, 53.822677612305, 11.536460876465   
   574  N, 552, 100.89472198486, 50.234676361084, 8.9807624816895   
   575  N, 553, 100.88971710205, 51.38729095459, 9.5028343200684
   576  N, 554, 101.52708435059, 49.759544372559, 9.2652244567871   
   577  N, 555, 103.98553466797, 48.201412200928, 11.451313018799   
   578  N, 556, 107.35810089111, 38.774589538574, 13.687789916992   
   579  N, 557, 105.35855865479, 45.739120483398, 13.801582336426   
   580  N, 558, 106.29861450195, 42.668918609619, 14.26736831665
   581  N, 559, 108.30788421631, 33.72395324707, 23.214252471924
   582  N, 560, 108.20568847656, 33.5315284729, 27.008678436279 
   583  N, 561, 107.50305175781, 37.048614501953, 13.730117797852   
   584  N, 562, 107.60758972168, 34.071979522705, 18.495220184326   
   585  N, 563, 104.85322570801, 48.042285919189, 9.6338768005371   
   586  N, 564, 105.98625183105, 45.345630645752, 11.982452392578   
   587  N, 565, 57.740173339844, 82.765731811523, 11.75121307373
   588  N, 566, 59.112796783447, 81.360565185547, 12.580898284912   
   589  N, 567, 55.773548126221, 87.53498840332, 9.6668510437012
   590  N, 568, 59.696666717529, 77.442779541016, 16.032138824463   
   591  N, 569, 59.98318862915, 81.503562927246, 14.554252624512
   592  N, 570, 59.14635848999, 80.770088195801, 14.135585784912
   593  N, 571, 59.441654205322, 81.632835388184, 13.453289031982   
   594  N, 572, 58.993076324463, 81.489639282227, 13.690204620361   
   595  N, 573, 60.027111053467, 81.423202514648, 14.268299102783   
   596  N, 574, 54.049217224121, 78.237243652344, 15.623683929443   
   597  N, 575, 57.429920196533, 80.677696228027, 14.122394561768   
   598  N, 576, 54.668212890625, 80.623695373535, 14.5915184021 
   599  N, 577, 54.119316101074, 60.046333312988, 26.152271270752   
   600  N, 578, 51.304622650146, 62.281639099121, 24.937412261963   
   601  N, 579, 59.30383682251, 54.08304977417, 27.372676849365 
   602  N, 580, 56.574932098389, 58.067058563232, 26.30643081665
   603  N, 581, 49.598445892334, 78.16983795166, 15.612361907959
   604  N, 582, 47.150100708008, 76.669998168945, 16.849960327148   
   605  N, 583, 45.702800750732, 78.480812072754, 15.936157226562   
   606  N, 584, 46.536716461182, 77.729713439941, 16.244396209717   
   607  N, 585, 48.996349334717, 68.235511779785, 20.74658203125
   608  N, 586, 49.036846160889, 69.172325134277, 20.070514678955   
   609  N, 587, 46.219593048096, 64.269302368164, 22.997787475586   
   610  N, 588, 45.864952087402, 67.47412109375, 21.242641448975
   611  N, 589, 44.816055297852, 65.931938171387, 21.851230621338   
   612  N, 590, 45.72119140625, 73.697387695312, 17.839698791504
   613  N, 591, 45.096893310547, 72.962005615234, 18.146114349365   
   614  N, 592, 45.691604614258, 74.643135070801, 17.686004638672   
   615  N, 593, 46.886688232422, 75.179672241211, 17.259925842285   
   616  N, 594, 59.687549591064, 95.493240356445, 6.5918235778809   
   617  N, 595, 64.761604309082, 97.274948120117, 3.8134689331055   
   618  N, 596, 63.846035003662, 95.066833496094, 6.1115303039551   
   619  N, 597, 55.024562835693, 91.774658203125, 8.3973007202148   
   620  N, 598, 54.082187652588, 95.844398498535, 6.7833404541016   
   621  N, 599, 75.367958068848, 39.829517364502, 20.414123535156   
   622  N, 600, 80.378051757812, 33.695495605469, 16.588325500488   
   623  N, 601, 77.927558898926, 31.848239898682, 19.608707427979   
   624  N, 602, 63.567081451416, 44.295028686523, 31.483631134033   
   625  N, 603, 59.949321746826, 51.769802093506, 29.000492095947   
   626  N, 604, 63.599643707275, 47.157367706299, 30.024158477783   
   627  N, 605, 66.128540039062, 36.783855438232, 31.915378570557   
   628  N, 606, 88.573303222656, 51.390693664551, 6.1666030883789   
   629  N, 607, 83.995468139648, 21.378866195679, 13.913879394531   
   630  N, 608, 82.386985778809, 22.766878128052, 15.660732269287   
   631  N, 609, 94.967292785645, 32.054069519043, 6.2733879089355   
   632  N, 610, 92.953941345215, 36.513336181641, 7.1651458740234   
   633  N, 611, 93.919937133789, 34.259498596191, 6.5923156738281   
   634  N, 612, 86.41185760498, 18.016195297241, 12.368740081787
   635  N, 613, 95.888488769531, 28.983955383301, 6.7071571350098   
   636  N, 614, 90.585372924805, 28.117393493652, 8.8472099304199   
   637  N, 615, 81.365257263184, 25.260540008545, 16.310661315918   
   638  N, 616, 90.745666503906, 49.651638031006, 4.9554443359375   
   639  N, 617, 94.118057250977, 48.519386291504, 4.986629486084
   640  N, 618, 91.897529602051, 50.238838195801, 3.3466987609863   
   641  N, 619, 89.129768371582, 53.067478179932, 3.903018951416
   642  N, 620, 90.254829406738, 50.823482513428, 3.9147071838379   
   643  N, 621, 92.464279174805, 42.331703186035, 4.4284858703613   
   644  N, 622, 93.031379699707, 45.216190338135, 3.8847770690918   
   645  N, 623, 92.496849060059, 38.535037994385, 7.2870216369629   
   646  N, 624, 94.449119567871, 48.311054229736, 4.8820304870605   
   647  N, 625, 94.092483520508, 45.815383911133, 3.2884521484375   
   648  N, 626, 94.389602661133, 47.194927215576, 4.6860046386719   
   649  N, 627, 93.57935333252, 49.687923431396, 3.3474197387695
   650  N, 628, 99.662940979004, 58.411041259766, 3.4218139648438   
   651  N, 629, 100.10076141357, 57.974754333496, 3.5608787536621   
   652  N, 630, 96.959930419922, 54.224945068359, 2.7768783569336   
   653  N, 631, 99.492736816406, 54.995471954346, 2.1124076843262   
   654  N, 632, 96.083702087402, 51.08572769165, 3.4378471374512
   655  N, 633, 98.363777160645, 51.130027770996, 3.1992607116699   
   656  N, 634, 99.506629943848, 56.685161590576, 2.6474952697754   
   657  N, 635, 91.627861022949, 62.910652160645, 32.594486236572   
   658  N, 636, 87.359832763672, 65.443466186523, 35.789417266846   
   659  N, 637, 90.353912353516, 61.777542114258, 32.437282562256   
   660  N, 638, 89.746162414551, 63.129707336426, 32.494609832764   
   661  N, 639, 91.199394226074, 59.37707901001, 34.282779693604
   662  N, 640, 79.295516967773, 69.046775817871, 39.500682830811   
   663  N, 641, 83.231071472168, 66.561660766602, 37.99458694458
   664  N, 642, 85.123641967773, 65.400230407715, 36.942005157471   
   665  N, 643, 77.330337524414, 95.633239746094, 4.999927520752
   666  N, 644, 78.424072265625, 95.043983459473, 4.3474731445312   
   667  N, 645, 75.666236877441, 96.765357971191, 2.7678184509277   
   668  N, 646, 73.69758605957, 97.569473266602, 3.6153984069824
   669  N, 647, 70.135879516602, 95.690475463867, 7.8856887817383   
   670  N, 648, 73.276107788086, 97.344123840332, 2.7588233947754   
   671  N, 649, 70.896896362305, 97.099952697754, 4.7303009033203   
   672  N, 650, 72.235137939453, 97.373184204102, 3.2669906616211   
   673  N, 651, 71.464782714844, 96.993865966797, 3.6286163330078   
   674  N, 652, 69.673439025879, 95.359550476074, 9.2258262634277   
   675  N, 653, 68.943138122559, 96.801574707031, 10.102165222168   
   676  N, 654, 58.362731933594, 95.658042907715, 23.545829772949   
   677  N, 655, 59.126705169678, 95.376899719238, 19.312793731689   
   678  N, 656, 63.613185882568, 94.170654296875, 19.247005462646   
   679  N, 657, 59.691692352295, 95.431945800781, 18.761302947998   
   680  N, 658, 56.327751159668, 96.26146697998, 20.987266540527
   681  N, 659, 58.566299438477, 93.033233642578, 27.652042388916   
   682  N, 660, 65.539733886719, 97.315521240234, 13.406101226807   
   683  N, 661, 68.348091125488, 97.863632202148, 9.4534873962402   
   684  N, 662, 67.24146270752, 97.877601623535, 11.168064117432
   685  N, 663, 61.923686981201, 79.114776611328, 39.918651580811   
   686  N, 664, 59.68688583374, 88.828224182129, 31.830654144287
   687  N, 665, 60.589694976807, 79.884033203125, 39.159267425537   
   688  N, 666, 59.65962600708, 85.285255432129, 35.000820159912
   689  N, 667, 67.01195526123, 74.762672424316, 40.436305999756
   690  N, 668, 74.821441650391, 70.872482299805, 40.943164825439   
   691  N, 669, 72.597229003906, 71.825141906738, 40.972850799561   
   692  N, 670, 73.5341796875, 71.037269592285, 40.828792572021 
   693  N, 671, 61.570362091064, 77.606323242188, 39.815181732178   
   694  N, 672, 63.896617889404, 76.59398651123, 40.312091827393
   695  N, 673, 74.795944213867, 96.668601989746, 2.277904510498
   696  N, 674, 70.622352600098, 96.767990112305, 3.8997039794922   
   697  N, 675, 70.124855041504, 96.799453735352, 3.9042091369629   
   698  N, 676, 68.136283874512, 98.144393920898, 2.8388061523438   
   699  N, 677, 101.76847839355, 55.010246276855, 10.338417053223   
   700  N, 678, 101.49120330811, 57.764904022217, 9.7799491882324   
   701  N, 679, 102.0025177002, 55.276218414307, 5.5920562744141
   702  N, 680, 100.25105285645, 56.924110412598, 2.81884765625 
   703  N, 681, 101.45736694336, 55.892597198486, 3.3057136535645   
   704  N, 682, 99.27222442627, 46.867698669434, 36.972187042236
   705  N, 683, 95.025062561035, 51.636459350586, 38.304256439209   
   706  N, 684, 96.123489379883, 51.084560394287, 38.212635040283   
   707  N, 685, 104.52174377441, 39.348003387451, 33.901638031006   
   708  N, 686, 99.531051635742, 43.835662841797, 35.422039031982   
   709  N, 687, 103.99217224121, 38.221145629883, 33.896595001221   
   710  N, 688, 105.54042053223, 35.349411010742, 32.723033905029   
   711  N, 689, 104.77033233643, 36.304660797119, 33.568027496338   
   712  N, 690, 106.19711303711, 30.911773681641, 32.149349212646   
   713  N, 691, 93.723083496094, 53.338626861572, 38.042179107666   
   714  N, 692, 91.929046630859, 56.957897186279, 36.390003204346   
   715  N, 693, 92.507423400879, 56.380176544189, 36.940189361572   
   716  N, 694, 101.78119659424, 53.33113861084, 5.2536239624023
   717  N, 695, 100.45470428467, 50.530620574951, 5.3398246765137   
   718  N, 696, 101.11087036133, 49.771648406982, 5.3141059875488   
   719  N, 697, 100.62511444092, 50.03763961792, 5.2522087097168
   720  N, 698, 100.23062896729, 50.897407531738, 4.7026786804199   
   721  N, 699, 103.3942489624, 48.851844787598, 9.7920608520508
   722  N, 700, 102.84495544434, 49.514072418213, 6.4162368774414   
   723  N, 701, 106.50686645508, 39.658569335938, 11.683879852295   
   724  N, 702, 106.18942260742, 37.617248535156, 9.7640991210938   
   725  N, 703, 105.977684021, 43.751815795898, 13.107833862305 
   726  N, 704, 109.29508972168, 27.288867950439, 25.099365234375   
   727  N, 705, 109.02891540527, 27.545812606812, 22.671070098877   
   728  N, 706, 107.64543151855, 31.860870361328, 30.302379608154   
   729  N, 707, 109.75874328613, 21.378290176392, 26.595638275146   
   730  N, 708, 109.0099105835, 28.106716156006, 28.276485443115
   731  N, 709, 106.99836730957, 35.332008361816, 12.52795791626
   732  N, 710, 106.5411529541, 35.552516937256, 11.083957672119
   733  N, 711, 107.13097381592, 29.786556243896, 17.192489624023   
   734  N, 712, 106.95413208008, 33.193267822266, 14.869766235352   
   735  N, 713, 106.06083679199, 46.595420837402, 7.5192337036133   
   736  N, 714, 104.79901123047, 48.530994415283, 5.8311805725098   
   737  N, 715, 105.38465881348, 47.474670410156, 4.3997650146484   
   738  N, 716, 106.60660552979, 42.678245544434, 10.33952331543
   739  N, 717, 106.28573608398, 45.480434417725, 7.5375747680664   
   740  N, 718, 58.563076019287, 81.33260345459, 13.147083282471
   741  N, 719, 56.371593475342, 83.800888061523, 11.675430297852   
   742  N, 720, 55.24426651001, 82.016014099121, 13.257793426514
   743  N, 721, 54.096343994141, 88.754096984863, 9.4434547424316   
   744  N, 722, 53.295425415039, 83.324577331543, 12.860000610352   
   745  N, 723, 51.236808776855, 83.949577331543, 12.353633880615   
   746  N, 724, 59.173252105713, 81.360038757324, 14.254314422607   
   747  N, 725, 59.687953948975, 82.268157958984, 14.144309997559   
   748  N, 726, 59.688297271729, 81.781066894531, 14.574234008789   
   749  N, 727, 59.29390335083, 81.835754394531, 13.744106292725
   750  N, 728, 52.425079345703, 80.551010131836, 14.587272644043   
   751  N, 729, 51.280094146729, 79.567199707031, 15.157825469971   
   752  N, 730, 46.786441802979, 63.12425994873, 24.078624725342
   753  N, 731, 53.927909851074, 59.836006164551, 26.597324371338   
   754  N, 732, 49.621017456055, 60.227188110352, 26.258670806885   
   755  N, 733, 52.418823242188, 60.157081604004, 26.610866546631   
   756  N, 734, 50.096111297607, 60.044448852539, 26.607227325439   
   757  N, 735, 46.0166015625, 63.727546691895, 23.596927642822 
   758  N, 736, 58.122566223145, 55.603317260742, 27.188640594482   
   759  N, 737, 59.265682220459, 53.318790435791, 28.263919830322   
   760  N, 738, 59.041980743408, 53.861335754395, 28.268405914307   
   761  N, 739, 55.791465759277, 58.434967041016, 26.633777618408   
   762  N, 740, 56.798545837402, 57.297828674316, 27.172046661377   
   763  N, 741, 44.584316253662, 79.380401611328, 15.088157653809   
   764  N, 742, 45.876930236816, 77.470176696777, 17.762237548828   
   765  N, 743, 45.818248748779, 78.098350524902, 17.074275970459   
   766  N, 744, 43.567939758301, 78.87427520752, 15.949405670166
   767  N, 745, 45.082004547119, 78.704147338867, 16.534782409668   
   768  N, 746, 43.450664520264, 69.819976806641, 19.007820129395   
   769  N, 747, 46.089824676514, 68.218437194824, 20.741905212402   
   770  N, 748, 45.12614440918, 69.069564819336, 19.898551940918
   771  N, 749, 43.781269073486, 71.513954162598, 17.89151763916
   772  N, 750, 44.706081390381, 65.310668945312, 22.302936553955   
   773  N, 751, 44.854499816895, 67.108673095703, 21.827774047852   
   774  N, 752, 45.674701690674, 69.018394470215, 20.983104705811   
   775  N, 753, 45.610702514648, 67.893417358398, 21.546619415283   
   776  N, 754, 45.971031188965, 69.284698486328, 21.259971618652   
   777  N, 755, 44.289112091064, 65.766555786133, 22.366386413574   
   778  N, 756, 44.553649902344, 74.670448303223, 17.78755569458
   779  N, 757, 45.103775024414, 75.088920593262, 17.850658416748   
   780  N, 758, 40.865886688232, 75.600578308105, 17.365180969238   
   781  N, 759, 44.555877685547, 78.171417236328, 18.518165588379   
   782  N, 760, 60.221240997314, 96.146621704102, 6.1010131835938   
   783  N, 761, 55.233963012695, 96.565315246582, 5.8692626953125   
   784  N, 762, 61.076168060303, 98.446228027344, 3.3353652954102   
   785  N, 763, 53.522148132324, 93.501609802246, 7.8388290405273   
   786  N, 764, 54.05163192749, 98.15958404541, 5.3730697631836 
   787  N, 765, 51.867279052734, 95.381469726562, 6.8190536499023   
   788  N, 766, 79.592300415039, 27.885429382324, 18.47936630249
   789  N, 767, 69.532623291016, 26.272983551025, 31.394382476807   
   790  N, 768, 77.236473083496, 27.544578552246, 21.150032043457   
   791  N, 769, 60.527767181396, 46.852054595947, 31.905994415283   
   792  N, 770, 65.651222229004, 30.318988800049, 34.263332366943   
   793  N, 771, 61.376270294189, 43.236125946045, 33.228046417236   
   794  N, 772, 60.609233856201, 36.498306274414, 35.918041229248   
   795  N, 773, 60.46830368042, 50.024906158447, 30.003520965576
   796  N, 774, 59.4319190979, 52.497222900391, 29.163082122803 
   797  N, 775, 59.988986968994, 51.094467163086, 29.518695831299   
   798  N, 776, 60.363224029541, 51.989852905273, 29.710834503174   
   799  N, 777, 82.862487792969, 20.258110046387, 15.022193908691   
   800  N, 778, 84.002952575684, 18.557947158813, 13.94189453125
   801  N, 779, 80.672454833984, 21.886779785156, 16.752613067627   
   802  N, 780, 80.533149719238, 20.282684326172, 16.647743225098   
   803  N, 781, 95.54630279541, 34.214576721191, 5.9261741638184
   804  N, 782, 94.437858581543, 35.400150299072, 5.8709335327148   
   805  N, 783, 94.238464355469, 35.765243530273, 5.6955490112305   
   806  N, 784, 91.281105041504, 23.655220031738, 8.8848991394043   
   807  N, 785, 83.991569519043, 14.111619949341, 13.934940338135   
   808  N, 786, 89.69864654541, 18.343482971191, 10.634544372559
   809  N, 787, 86.477149963379, 10.727922439575, 12.395195007324   
   810  N, 788, 88.831886291504, 14.65273475647, 11.446083068848
   811  N, 789, 94.856330871582, 26.945550918579, 7.2984657287598   
   812  N, 790, 96.699394226074, 27.008193969727, 7.0941047668457   
   813  N, 791, 78.605323791504, 24.717374801636, 19.762950897217   
   814  N, 792, 96.705589294434, 48.628921508789, 4.4735450744629   
   815  N, 793, 95.272933959961, 49.69994354248, 3.3562889099121
   816  N, 794, 95.569480895996, 49.47891998291, 3.6887321472168
   817  N, 795, 93.086486816406, 44.508495330811, 3.386474609375
   818  N, 796, 94.060905456543, 39.332191467285, 3.8178634643555   
   819  N, 797, 93.669982910156, 41.970462799072, 2.8418960571289   
   820  N, 798, 93.547439575195, 45.267581939697, 3.2818603515625   
   821  N, 799, 94.766334533691, 36.926044464111, 3.3920288085938   
   822  N, 800, 96.123733520508, 47.158206939697, 4.1844902038574   
   823  N, 801, 94.686141967773, 44.096965789795, 2.2203559875488   
   824  N, 802, 95.816413879395, 45.183090209961, 2.7925338745117   
   825  N, 803, 98.614349365234, 53.566696166992, 2.2090911865234   
   826  N, 804, 100.38410949707, 55.354148864746, 2.2023735046387   
   827  N, 805, 99.867225646973, 53.030555725098, 2.2132377624512   
   828  N, 806, 97.261459350586, 50.547863006592, 3.596076965332
   829  N, 807, 100.26068115234, 51.971813201904, 2.8236656188965   
   830  N, 808, 98.878952026367, 50.009143829346, 4.102180480957
   831  N, 809, 88.301826477051, 63.340835571289, 32.712772369385   
   832  N, 810, 89.63313293457, 61.160842895508, 31.988719940186
   833  N, 811, 88.996063232422, 62.482200622559, 31.982028961182   
   834  N, 812, 90.76513671875, 57.77437210083, 34.774112701416 
   835  N, 813, 80.946380615234, 67.148017883301, 37.95853805542
   836  N, 814, 83.399711608887, 65.335021972656, 36.48637008667
   837  N, 815, 86.574340820312, 64.043395996094, 33.890300750732   
   838  N, 816, 84.536773681641, 64.804801940918, 35.882907867432   
   839  N, 817, 69.94287109375, 96.055046081543, 7.579906463623 
   840  N, 818, 69.950286865234, 97.20548248291, 4.1939392089844
   841  N, 819, 70.020782470703, 97.3095703125, 4.7495498657227 
   842  N, 820, 68.770973205566, 97.694038391113, 8.664722442627
   843  N, 821, 57.00638961792, 95.668182373047, 23.555492401123
   844  N, 822, 57.470970153809, 95.903190612793, 18.7239112854 
   845  N, 823, 59.712696075439, 97.134811401367, 15.975437164307   
   846  N, 824, 61.860034942627, 96.881706237793, 15.920444488525   
   847  N, 825, 57.41471862793, 96.165008544922, 17.254402160645
   848  N, 826, 52.358150482178, 95.833137512207, 20.982551574707   
   849  N, 827, 54.625045776367, 96.420440673828, 18.205581665039   
   850  N, 828, 50.705581665039, 96.430938720703, 17.605213165283   
   851  N, 829, 55.778148651123, 88.67756652832, 32.121486663818
   852  N, 830, 52.960601806641, 94.579521179199, 24.151702880859   
   853  N, 831, 55.203437805176, 90.788597106934, 29.887531280518   
   854  N, 832, 53.528503417969, 91.33317565918, 28.898975372314
   855  N, 833, 67.176261901855, 98.965812683105, 8.2190055847168   
   856  N, 834, 58.150714874268, 87.27693939209, 33.071697235107
   857  N, 835, 57.446628570557, 87.958534240723, 32.596073150635   
   858  N, 836, 59.952236175537, 79.999900817871, 38.663410186768   
   859  N, 837, 60.435787200928, 79.103858947754, 39.282985687256   
   860  N, 838, 57.815048217773, 85.985427856445, 33.563037872314   
   861  N, 839, 57.946578979492, 84.747535705566, 33.958911895752   
   862  N, 840, 72.007118225098, 71.163536071777, 40.058391571045   
   863  N, 841, 61.137119293213, 77.193222045898, 39.147205352783   
   864  N, 842, 63.850925445557, 75.442100524902, 38.194393157959   
   865  N, 843, 76.107894897461, 69.26244354248, 39.277278900146
   866  N, 844, 71.977470397949, 70.81689453125, 38.963161468506
   867  N, 845, 74.229133605957, 69.737396240234, 38.955814361572   
   868  N, 846, 59.977237701416, 78.271423339844, 38.645503997803   
   869  N, 847, 68.997589111328, 97.64688873291, 3.3242492675781
   870  N, 848, 59.125942230225, 99.478790283203, 2.7303848266602   
   871  N, 849, 67.86360168457, 99.090286254883, 2.7658081054688
   872  N, 850, 65.877952575684, 99.304092407227, 2.5575256347656   
   873  N, 851, 101.87998199463, 54.44898223877, 4.2170448303223
   874  N, 852, 101.49027252197, 52.96545791626, 3.7576866149902
   875  N, 853, 100.81597137451, 54.449371337891, 2.2897186279297   
   876  N, 854, 101.37283325195, 54.44917678833, 2.8060646057129
   877  N, 855, 94.641593933105, 51.283828735352, 38.122043609619   
   878  N, 856, 94.139167785645, 51.888427734375, 38.096523284912   
   879  N, 857, 102.5291519165, 37.867774963379, 33.619716644287
   880  N, 858, 97.354377746582, 46.644973754883, 36.077793121338   
   881  N, 859, 100.83451843262, 40.095752716064, 33.654613494873   
   882  N, 860, 107.70436859131, 29.243560791016, 30.876071929932   
   883  N, 861, 105.34761047363, 28.954517364502, 31.915035247803   
   884  N, 862, 104.25368499756, 31.188034057617, 32.467151641846   
   885  N, 863, 108.66278076172, 20.258991241455, 30.17427444458
   886  N, 864, 92.549430847168, 54.474174499512, 37.437084197998   
   887  N, 865, 91.463668823242, 55.56090927124, 36.23263168335 
   888  N, 866, 99.856468200684, 50.667762756348, 4.3147735595703   
   889  N, 867, 100.59481811523, 49.565258026123, 4.6800498962402   
   890  N, 868, 103.61643218994, 49.073436737061, 3.9893836975098   
   891  N, 869, 99.422470092773, 49.943035125732, 4.3367538452148   
   892  N, 870, 100.02962493896, 49.524356842041, 4.5280876159668   
   893  N, 871, 106.59683990479, 40.436290740967, 8.0580291748047   
   894  N, 872, 105.09274291992, 35.950965881348, 8.0963363647461   
   895  N, 873, 105.94352722168, 37.885395050049, 8.0981140136719   
   896  N, 874, 104.70874023438, 36.36922454834, 5.8567848205566
   897  N, 875, 108.95302581787, 25.344945907593, 20.999317169189   
   898  N, 876, 106.00959014893, 28.106037139893, 13.818069458008   
   899  N, 877, 109.46314239502, 21.981983184814, 28.819873809814   
   900  N, 878, 109.53913879395, 20.262142181396, 25.430908203125   
   901  N, 879, 109.34146881104, 20.292554855347, 29.198078155518   
   902  N, 880, 108.71716308594, 18.314851760864, 29.066822052002   
   903  N, 881, 104.93398284912, 30.409862518311, 11.462524414062   
   904  N, 882, 106.04612731934, 30.885025024414, 13.671390533447   
   905  N, 883, 104.2546005249, 35.665142059326, 6.6855659484863
   906  N, 884, 104.39859008789, 30.918067932129, 10.398868560791   
   907  N, 885, 103.0640411377, 34.044704437256, 7.3083190917969
   908  N, 886, 104.29537200928, 48.602367401123, 3.8112869262695   
   909  N, 887, 106.55882263184, 43.273872375488, 8.6699829101562   
   910  N, 888, 104.82057952881, 46.927799224854, 2.7558250427246   
   911  N, 889, 105.6175994873, 44.882251739502, 4.1842613220215
   912  N, 890, 104.8210144043, 44.591651916504, 2.7568740844727
   913  N, 891, 41.776489257812, 86.061561584473, 10.603370666504   
   914  N, 892, 43.993595123291, 94.120849609375, 6.8021240234375   
   915  N, 893, 44.552333831787, 88.808525085449, 8.9055671691895   
   916  N, 894, 42.312431335449, 91.551338195801, 7.7605857849121   
   917  N, 895, 45.895259857178, 81.655258178711, 13.990142822266   
   918  N, 896, 45.667938232422, 82.435073852539, 13.239269256592   
   919  N, 897, 46.45817565918, 60.833724975586, 25.737255096436
   920  N, 898, 46.495178222656, 63.017707824707, 24.380149841309   
   921  N, 899, 46.471717834473, 61.767265319824, 25.50191116333
   922  N, 900, 54.052619934082, 60.014724731445, 27.022579193115   
   923  N, 901, 55.81521987915, 58.438106536865, 27.12975692749 
   924  N, 902, 54.695610046387, 59.536251068115, 26.975963592529   
   925  N, 903, 49.524272918701, 59.140594482422, 27.200458526611   
   926  N, 904, 46.570610046387, 59.806823730469, 26.411540985107   
   927  N, 905, 49.040912628174, 58.933052062988, 27.192546844482   
   928  N, 906, 47.486915588379, 59.187786102295, 26.829914093018   
   929  N, 907, 50.737125396729, 60.647872924805, 27.060573577881   
   930  N, 908, 50.112670898438, 60.093849182129, 26.978099822998   
   931  N, 909, 45.250831604004, 64.593849182129, 23.223419189453   
   932  N, 910, 46.437301635742, 63.402099609375, 24.901775360107   
   933  N, 911, 58.758014678955, 54.474388122559, 28.103160858154   
   934  N, 912, 58.006519317627, 56.082153320312, 27.614498138428   
   935  N, 913, 59.321178436279, 53.84358215332, 28.665325164795
   936  N, 914, 59.422252655029, 53.106197357178, 29.134273529053   
   937  N, 915, 58.548236846924, 56.702941894531, 27.685375213623   
   938  N, 916, 42.338161468506, 78.347763061523, 15.916412353516   
   939  N, 917, 42.039810180664, 80.511512756348, 14.536880493164   
   940  N, 918, 45.719455718994, 77.994415283203, 18.18529510498
   941  N, 919, 45.140110015869, 78.174125671387, 18.709621429443   
   942  N, 920, 44.820487976074, 79.338768005371, 17.356365203857   
   943  N, 921, 45.906063079834, 78.557929992676, 18.005035400391   
   944  N, 922, 43.403335571289, 79.113090515137, 16.509834289551   
   945  N, 923, 42.839241027832, 78.708641052246, 16.380634307861   
   946  N, 924, 44.35631942749, 79.672660827637, 16.752601623535
   947  N, 925, 42.871921539307, 69.65697479248, 19.327953338623
   948  N, 926, 41.533309936523, 69.813888549805, 18.4208984375 
   949  N, 927, 41.765243530273, 69.517219543457, 19.268245697021   
   950  N, 928, 45.118721008301, 69.09693145752, 20.430969238281
   951  N, 929, 40.655006408691, 74.084243774414, 16.98401260376
   952  N, 930, 40.907329559326, 71.005592346191, 17.35668182373
   953  N, 931, 40.084087371826, 71.826263427734, 16.976928710938   
   954  N, 932, 45.056636810303, 65.046127319336, 23.215721130371   
   955  N, 933, 44.857044219971, 67.058586120605, 22.385990142822   
   956  N, 934, 44.961627960205, 69.596290588379, 20.633014678955   
   957  N, 935, 46.029598236084, 68.683319091797, 21.764514923096   
   958  N, 936, 45.65796661377, 70.678565979004, 20.843830108643
   959  N, 937, 48.09708404541, 71.078475952148, 21.300926208496
   960  N, 938, 43.67769241333, 76.556259155273, 17.921787261963
   961  N, 939, 42.309383392334, 75.891784667969, 17.315132141113   
   962  N, 940, 42.524719238281, 77.066551208496, 17.437046051025   
   963  N, 941, 42.281051635742, 76.871780395508, 17.078491210938   
   964  N, 942, 39.502613067627, 76.303611755371, 16.518989562988   
   965  N, 943, 41.170463562012, 77.881355285645, 16.158679962158   
   966  N, 944, 44.5198097229, 79.080017089844, 18.945419311523 
   967  N, 945, 43.186855316162, 78.272132873535, 19.039436340332   
   968  N, 946, 43.665683746338, 79.166931152344, 19.036388397217   
   969  N, 947, 56.486911773682, 97.873336791992, 3.8772087097168   
   970  N, 948, 54.501857757568, 98.182838439941, 5.1671829223633   
   971  N, 949, 55.459018707275, 98.970611572266, 3.316780090332
   972  N, 950, 56.163745880127, 98.478614807129, 3.3694152832031   
   973  N, 951, 52.608047485352, 96.831718444824, 5.6368408203125   
   974  N, 952, 54.069938659668, 98.644752502441, 5.4455299377441   
   975  N, 953, 53.537670135498, 98.203552246094, 5.2945976257324   
   976  N, 954, 48.510196685791, 95.726142883301, 6.1731834411621   
   977  N, 955, 52.128421783447, 98.454208374023, 3.3332901000977   
   978  N, 956, 70.614517211914, 22.21252822876, 30.7981300354  
   979  N, 957, 67.461952209473, 23.620960235596, 33.772777557373   
   980  N, 958, 68.917839050293, 24.213678359985, 32.437351226807   
   981  N, 959, 76.453033447266, 20.832717895508, 22.678958892822   
   982  N, 960, 60.558216094971, 43.999015808105, 33.734531402588   
   983  N, 961, 60.555835723877, 50.23318862915, 30.782550811768
   984  N, 962, 60.545734405518, 45.231788635254, 33.627750396729   
   985  N, 963, 60.527767181396, 47.497310638428, 32.515270233154   
   986  N, 964, 60.483432769775, 46.583980560303, 32.752407073975   
   987  N, 965, 60.979923248291, 32.58850479126, 36.805683135986
   988  N, 966, 66.148048400879, 18.589521408081, 34.734279632568   
   989  N, 967, 60.375415802002, 26.407207489014, 37.950954437256   
   990  N, 968, 60.498203277588, 41.569343566895, 34.526264190674   
   991  N, 969, 60.523136138916, 33.725105285645, 37.094249725342   
   992  N, 970, 60.561695098877, 36.170810699463, 36.925258636475   
   993  N, 971, 60.811450958252, 51.646095275879, 29.988269805908   
   994  N, 972, 59.676761627197, 54.623260498047, 28.508350372314   
   995  N, 973, 61.912715911865, 51.284481048584, 30.153659820557   
   996  N, 974, 61.110042572021, 55.301773071289, 28.000179290771   
   997  N, 975, 81.412216186523, 16.914228439331, 16.382286071777   
   998  N, 976, 83.528450012207, 13.814109802246, 14.553691864014   
   999  N, 977, 83.083366394043, 14.097988128662, 15.24059677124
  1000  N, 978, 79.574806213379, 21.164182662964, 17.891635894775   
  1001  N, 979, 95.530570983887, 34.890144348145, 5.2558555603027   
  1002  N, 980, 97.276268005371, 30.567070007324, 6.1109199523926   
  1003  N, 981, 97.206092834473, 34.304977416992, 5.2912521362305   
  1004  N, 982, 96.666427612305, 34.124691009521, 5.6520042419434   
  1005  N, 983, 95.383834838867, 35.783344268799, 3.4621543884277   
  1006  N, 984, 85.761329650879, 0.40177536010742, 12.878253936768  
  1007  N, 985, 83.989868164062, 12.971853256226, 14.271179199219   
  1008  N, 986, 84.570724487305, 3.4345784187317, 13.751934051514   
  1009  N, 987, 84.091842651367, 10.857063293457, 14.533157348633   
  1010  N, 988, 84.106094360352, 6.8166728019714, 14.283500671387   
  1011  N, 989, 84.093254089355, 7.1536498069763, 14.499950408936   
  1012  N, 990, 92.203544616699, 15.176145553589, 10.476932525635   
  1013  N, 991, 93.86238861084, 16.878456115723, 9.8185729980469
  1014  N, 992, 90.520561218262, 9.6497898101807, 11.031063079834   
  1015  N, 993, 88.750213623047, 2.8663811683655, 11.244522094727   
  1016  N, 994, 98.499908447266, 23.03751373291, 8.4294166564941
  1017  N, 995, 96.133033752441, 15.644645690918, 10.113681793213   
  1018  N, 996, 98.928680419922, 49.158096313477, 4.4616317749023   
  1019  N, 997, 98.38680267334, 47.699512481689, 4.5948791503906
  1020  N, 998, 95.040885925293, 39.904556274414, 2.9479141235352   
  1021  N, 999, 94.70979309082, 38.765117645264, 3.3308296203613
  1022  N, 1000, 94.195663452148, 43.239040374756, 2.2671318054199  
  1023  N, 1001, 94.777755737305, 41.885593414307, 2.2375297546387  
  1024  N, 1002, 95.602394104004, 37.073619842529, 2.7200012207031  
  1025  N, 1003, 98.374877929688, 45.427440643311, 3.7954254150391  
  1026  N, 1004, 98.70475769043, 46.847080230713, 4.4618301391602   
  1027  N, 1005, 95.805145263672, 42.678417205811, 2.2455062866211  
  1028  N, 1006, 97.950126647949, 44.372352600098, 3.4164123535156  
  1029  N, 1007, 100.94468688965, 52.9303855896, 2.7193489074707
  1030  N, 1008, 87.921463012695, 63.086807250977, 32.001651763916  
  1031  N, 1009, 89.099960327148, 60.873733520508, 30.833354949951  
  1032  N, 1010, 90.842636108398, 55.991218566895, 34.452564239502  
  1033  N, 1011, 90.311561584473, 57.683254241943, 31.681827545166  
  1034  N, 1012, 88.610282897949, 62.618576049805, 31.864231109619  
  1035  N, 1013, 82.470794677734, 65.430610656738, 35.611133575439  
  1036  N, 1014, 78.511856079102, 67.647499084473, 36.301074981689  
  1037  N, 1015, 84.318740844727, 64.435913085938, 31.620906829834  
  1038  N, 1016, 68.927436828613, 98.468185424805, 3.3398284912109  
  1039  N, 1017, 68.462875366211, 99.093070983887, 3.6636772155762  
  1040  N, 1018, 55.521884918213, 96.202301025391, 15.530548095703  
  1041  N, 1019, 57.150730133057, 99.573524475098, 10.067420959473  
  1042  N, 1020, 59.083843231201, 99.408294677734, 10.917602539062  
  1043  N, 1021, 56.026798248291, 96.786720275879, 14.569972991943  
  1044  N, 1022, 49.579368591309, 95.817504882812, 19.277603149414  
  1045  N, 1023, 50.396854400635, 95.077964782715, 24.061317443848  
  1046  N, 1024, 46.838603973389, 95.417221069336, 19.879619598389  
  1047  N, 1025, 47.355567932129, 95.115570068359, 24.156089782715  
  1048  N, 1026, 52.418022155762, 96.366760253906, 16.525062561035  
  1049  N, 1027, 50.358253479004, 98.414947509766, 14.499374389648  
  1050  N, 1028, 52.383155822754, 96.599639892578, 15.395389556885  
  1051  N, 1029, 51.601161956787, 99.036666870117, 12.348220825195  
  1052  N, 1030, 47.404903411865, 92.888687133789, 27.474391937256  
  1053  N, 1031, 53.016082763672, 85.875282287598, 34.049121856689  
  1054  N, 1032, 51.298076629639, 87.102012634277, 33.435230255127  
  1055  N, 1033, 48.459117889404, 94.143295288086, 26.00341796875   
  1056  N, 1034, 65.597640991211, 100.13770294189, 5.0464515686035  
  1057  N, 1035, 63.056606292725, 100.62167358398, 4.1748847961426  
  1058  N, 1036, 54.069179534912, 85.262008666992, 33.88724899292   
  1059  N, 1037, 55.763103485107, 84.716674804688, 33.320285797119  
  1060  N, 1038, 58.825664520264, 80.650115966797, 37.011684417725  
  1061  N, 1039, 58.843814849854, 79.362403869629, 36.988254547119  
  1062  N, 1040, 57.592205047607, 83.63875579834, 33.74645614624
  1063  N, 1041, 56.348598480225, 84.689903259277, 33.29764175415   
  1064  N, 1042, 57.758419036865, 82.449424743652, 34.097232818604  
  1065  N, 1043, 68.651390075684, 72.351989746094, 36.688129425049  
  1066  N, 1044, 59.652164459229, 76.98787689209, 33.848705291748   
  1067  N, 1045, 58.946407318115, 77.800575256348, 34.472553253174  
  1068  N, 1046, 63.325901031494, 75.465354919434, 33.883243560791  
  1069  N, 1047, 60.149265289307, 76.68342590332, 31.629093170166   
  1070  N, 1048, 76.197540283203, 68.70881652832, 33.916316986084   
  1071  N, 1049, 72.297973632812, 70.423561096191, 36.88512802124   
  1072  N, 1050, 56.032215118408, 100.16470336914, 2.7952766418457  
  1073  N, 1051, 64.934295654297, 100.10529327393, 2.8042793273926  
  1074  N, 1052, 66.96662902832, 99.853004455566, 3.6170349121094   
  1075  N, 1053, 94.230880737305, 50.882583618164, 37.432949066162  
  1076  N, 1054, 93.008430480957, 52.981506347656, 37.555683135986  
  1077  N, 1055, 101.51152801514, 38.023513793945, 32.972927093506  
  1078  N, 1056, 97.556350708008, 44.678150177002, 34.108013153076  
  1079  N, 1057, 92.513710021973, 53.096786499023, 36.901287078857  
  1080  N, 1058, 96.276329040527, 46.604881286621, 33.28104019165   
  1081  N, 1059, 99.304740905762, 40.847187042236, 32.237506866455  
  1082  N, 1060, 104.62394714355, 28.6708984375, 31.529056549072
  1083  N, 1061, 108.20670318604, 18.220611572266, 30.257373809814  
  1084  N, 1062, 106.77662658691, 19.655597686768, 30.51851272583   
  1085  N, 1063, 100.31185913086, 37.889724731445, 31.38024520874   
  1086  N, 1064, 91.97762298584, 53.774677276611, 36.113651275635   
  1087  N, 1065, 102.28731536865, 49.041313171387, 3.3737640380859  
  1088  N, 1066, 100.59702301025, 49.257759094238, 4.3268547058105  
  1089  N, 1067, 103.14505767822, 48.55908203125, 2.7839660644531   
  1090  N, 1068, 99.227256774902, 47.403606414795, 4.4547004699707  
  1091  N, 1069, 100.27401733398, 45.992855072021, 3.2906723022461  
  1092  N, 1070, 105.92251586914, 38.488502502441, 4.4688949584961  
  1093  N, 1071, 105.41798400879, 39.29634475708, 2.6838607788086   
  1094  N, 1072, 104.79962158203, 37.361667633057, 2.7784118652344  
  1095  N, 1073, 107.76000213623, 24.773502349854, 17.084892272949  
  1096  N, 1074, 108.76062774658, 23.091094970703, 20.094009399414  
  1097  N, 1075, 106.00666809082, 24.211500167847, 13.355712890625  
  1098  N, 1076, 106.43437957764, 24.766510009766, 14.056705474854  
  1099  N, 1077, 108.75293731689, 19.362844467163, 21.777523040771  
  1100  N, 1078, 107.62052154541, 21.584228515625, 16.767139434814  
  1101  N, 1079, 107.11780548096, 16.565877914429, 30.252849578857  
  1102  N, 1080, 105.35607910156, 13.258945465088, 25.681938171387  
  1103  N, 1081, 106.65937042236, 15.267845153809, 28.824687957764  
  1104  N, 1082, 104.24430847168, 26.694660186768, 10.617935180664  
  1105  N, 1083, 102.88041687012, 34.819812774658, 6.3948135375977  
  1106  N, 1084, 104.20218658447, 36.831703186035, 2.8132095336914  
  1107  N, 1085, 100.33623504639, 30.610725402832, 6.6968040466309  
  1108  N, 1086, 103.06879425049, 30.316493988037, 9.0209617614746  
  1109  N, 1087, 101.3448638916, 34.568370819092, 6.1621246337891   
  1110  N, 1088, 101.86616516113, 33.667812347412, 6.7883949279785  
  1111  N, 1089, 105.44962310791, 43.23900604248, 4.3439636230469   
  1112  N, 1090, 104.28942871094, 45.079174041748, 2.2031364440918  
  1113  N, 1091, 103.70439147949, 47.446292877197, 2.2226219177246  
  1114  N, 1092, 104.41035461426, 42.109630584717, 2.666374206543   
  1115  N, 1093, 41.751335144043, 87.704895019531, 9.9855461120605  
  1116  N, 1094, 40.083782196045, 84.658966064453, 11.366096496582  
  1117  N, 1095, 40.767929077148, 88.408805847168, 9.5312767028809  
  1118  N, 1096, 38.718494415283, 85.529373168945, 10.01277923584   
  1119  N, 1097, 38.655109405518, 86.764511108398, 9.5172729492188  
  1120  N, 1098, 39.526817321777, 92.015678405762, 7.6246147155762  
  1121  N, 1099, 41.381725311279, 94.600532531738, 5.6536445617676  
  1122  N, 1100, 40.679428100586, 94.103393554688, 5.8453254699707  
  1123  N, 1101, 41.19079208374, 89.057556152344, 9.0127944946289   
  1124  N, 1102, 38.9814453125, 91.477096557617, 7.9275245666504
  1125  N, 1103, 40.672714233398, 82.638626098633, 12.777473449707  
[...]
 REAL=  0.00000000       IMAG=  0.00000000    
 ADDITIONAL DOFS=  UY    UZ  

 SPECIFIED CONSTRAINT UX   FOR SELECTED NODES      4492 TO     4492 BY        1
 REAL=  0.00000000       IMAG=  0.00000000    
 ADDITIONAL DOFS=  UY    UZ  

 SPECIFIED CONSTRAINT UX   FOR SELECTED NODES      4473 TO     4473 BY        1
 REAL=  0.00000000       IMAG=  0.00000000    
 ADDITIONAL DOFS=  UY    UZ  

 SPECIFIED CONSTRAINT UX   FOR SELECTED NODES      4494 TO     4494 BY        1
 REAL=  0.00000000       IMAG=  0.00000000    
 ADDITIONAL DOFS=  UY    UZ  

 SPECIFIED CONSTRAINT UX   FOR SELECTED NODES      4497 TO     4497 BY        1
 REAL=  0.00000000       IMAG=  0.00000000    
 ADDITIONAL DOFS=  UY    UZ  

 SPECIFIED CONSTRAINT UX   FOR SELECTED NODES      4493 TO     4493 BY        1
 REAL=  0.00000000       IMAG=  0.00000000    
 ADDITIONAL DOFS=  UY    UZ  

 SPECIFIED CONSTRAINT UX   FOR SELECTED NODES      4495 TO     4495 BY        1
 REAL=  0.00000000       IMAG=  0.00000000    
 ADDITIONAL DOFS=  UY    UZ  

 SPECIFIED CONSTRAINT UX   FOR SELECTED NODES      4478 TO     4478 BY        1
 REAL=  0.00000000       IMAG=  0.00000000    
 ADDITIONAL DOFS=  UY    UZ  

 SPECIFIED CONSTRAINT UX   FOR SELECTED NODES      4496 TO     4496 BY        1
 REAL=  0.00000000       IMAG=  0.00000000    
 ADDITIONAL DOFS=  UY    UZ  

 SPECIFIED CONSTRAINT UX   FOR SELECTED NODES      4498 TO     4498 BY        1
 REAL=  0.00000000       IMAG=  0.00000000    
 ADDITIONAL DOFS=  UY    UZ  

 SPECIFIED CONSTRAINT UX   FOR SELECTED NODES      4500 TO     4500 BY        1
 REAL=  0.00000000       IMAG=  0.00000000    
 ADDITIONAL DOFS=  UY    UZ  

 SPECIFIED CONSTRAINT UX   FOR SELECTED NODES      4499 TO     4499 BY        1
 REAL=  0.00000000       IMAG=  0.00000000    
 ADDITIONAL DOFS=  UY    UZ  

 SPECIFIED CONSTRAINT UX   FOR SELECTED NODES      4501 TO     4501 BY        1
 REAL=  0.00000000       IMAG=  0.00000000    
 ADDITIONAL DOFS=  UY    UZ  

 SPECIFIED CONSTRAINT UX   FOR SELECTED NODES      4502 TO     4502 BY        1
 REAL=  0.00000000       IMAG=  0.00000000    
 ADDITIONAL DOFS=  UY    UZ  

 SPECIFIED CONSTRAINT UX   FOR SELECTED NODES      4504 TO     4504 BY        1
 REAL=  0.00000000       IMAG=  0.00000000    
 ADDITIONAL DOFS=  UY    UZ  

 SPECIFIED CONSTRAINT UX   FOR SELECTED NODES      4503 TO     4503 BY        1
 REAL=  0.00000000       IMAG=  0.00000000    
 ADDITIONAL DOFS=  UY    UZ  

 SPECIFIED CONSTRAINT UX   FOR SELECTED NODES      4508 TO     4508 BY        1
 REAL=  0.00000000       IMAG=  0.00000000    
 ADDITIONAL DOFS=  UY    UZ  

 SPECIFIED CONSTRAINT UX   FOR SELECTED NODES      4507 TO     4507 BY        1
 REAL=  0.00000000       IMAG=  0.00000000    
 ADDITIONAL DOFS=  UY    UZ  

 SPECIFIED CONSTRAINT UX   FOR SELECTED NODES      4509 TO     4509 BY        1
 REAL=  0.00000000       IMAG=  0.00000000    
 ADDITIONAL DOFS=  UY    UZ  

 SPECIFIED CONSTRAINT UX   FOR SELECTED NODES      4505 TO     4505 BY        1
 REAL=  0.00000000       IMAG=  0.00000000    
 ADDITIONAL DOFS=  UY    UZ  

 SPECIFIED CONSTRAINT UX   FOR SELECTED NODES      4510 TO     4510 BY        1
 REAL=  0.00000000       IMAG=  0.00000000    
 ADDITIONAL DOFS=  UY    UZ  

 SPECIFIED CONSTRAINT UX   FOR SELECTED NODES      4511 TO     4511 BY        1
 REAL=  0.00000000       IMAG=  0.00000000    
 ADDITIONAL DOFS=  UY    UZ  

 SPECIFIED CONSTRAINT UX   FOR SELECTED NODES      4512 TO     4512 BY        1
 REAL=  0.00000000       IMAG=  0.00000000    
 ADDITIONAL DOFS=  UY    UZ  

 SPECIFIED CONSTRAINT UX   FOR SELECTED NODES      4506 TO     4506 BY        1
 REAL=  0.00000000       IMAG=  0.00000000    
 ADDITIONAL DOFS=  UY    UZ  

 SPECIFIED CONSTRAINT UX   FOR SELECTED NODES      4515 TO     4515 BY        1
 REAL=  0.00000000       IMAG=  0.00000000    
 ADDITIONAL DOFS=  UY    UZ  

 SPECIFIED CONSTRAINT UX   FOR SELECTED NODES      4517 TO     4517 BY        1
 REAL=  0.00000000       IMAG=  0.00000000    
 ADDITIONAL DOFS=  UY    UZ  

 SPECIFIED CONSTRAINT UX   FOR SELECTED NODES      4516 TO     4516 BY        1
 REAL=  0.00000000       IMAG=  0.00000000    
 ADDITIONAL DOFS=  UY    UZ  

 SPECIFIED CONSTRAINT UX   FOR SELECTED NODES      4519 TO     4519 BY        1
 REAL=  0.00000000       IMAG=  0.00000000    
 ADDITIONAL DOFS=  UY    UZ  

 SPECIFIED CONSTRAINT UX   FOR SELECTED NODES      4518 TO     4518 BY        1
 REAL=  0.00000000       IMAG=  0.00000000    
 ADDITIONAL DOFS=  UY    UZ  

 SPECIFIED CONSTRAINT UX   FOR SELECTED NODES      4521 TO     4521 BY        1
 REAL=  0.00000000       IMAG=  0.00000000    
 ADDITIONAL DOFS=  UY    UZ  

 SPECIFIED CONSTRAINT UX   FOR SELECTED NODES      4520 TO     4520 BY        1
 REAL=  0.00000000       IMAG=  0.00000000    
 ADDITIONAL DOFS=  UY    UZ  

 SPECIFIED CONSTRAINT UX   FOR SELECTED NODES      4513 TO     4513 BY        1
 REAL=  0.00000000       IMAG=  0.00000000    
 ADDITIONAL DOFS=  UY    UZ  

 SPECIFIED CONSTRAINT UX   FOR SELECTED NODES      4543 TO     4543 BY        1
 REAL=  0.00000000       IMAG=  0.00000000    
 ADDITIONAL DOFS=  UY    UZ  

 SPECIFIED CONSTRAINT UX   FOR SELECTED NODES      4544 TO     4544 BY        1
 REAL=  0.00000000       IMAG=  0.00000000    
 ADDITIONAL DOFS=  UY    UZ  

 SPECIFIED CONSTRAINT UX   FOR SELECTED NODES      4527 TO     4527 BY        1
 REAL=  0.00000000       IMAG=  0.00000000    
 ADDITIONAL DOFS=  UY    UZ  

 SPECIFIED CONSTRAINT UX   FOR SELECTED NODES      4545 TO     4545 BY        1
 REAL=  0.00000000       IMAG=  0.00000000    
 ADDITIONAL DOFS=  UY    UZ  

 SPECIFIED CONSTRAINT UX   FOR SELECTED NODES      4546 TO     4546 BY        1
 REAL=  0.00000000       IMAG=  0.00000000    
 ADDITIONAL DOFS=  UY    UZ  

 SPECIFIED CONSTRAINT UX   FOR SELECTED NODES      4542 TO     4542 BY        1
 REAL=  0.00000000       IMAG=  0.00000000    
 ADDITIONAL DOFS=  UY    UZ  

 SPECIFIED CONSTRAINT UX   FOR SELECTED NODES      4551 TO     4551 BY        1
 REAL=  0.00000000       IMAG=  0.00000000    
 ADDITIONAL DOFS=  UY    UZ  

 SPECIFIED CONSTRAINT UX   FOR SELECTED NODES      4548 TO     4548 BY        1
 REAL=  0.00000000       IMAG=  0.00000000    
 ADDITIONAL DOFS=  UY    UZ  

 SPECIFIED CONSTRAINT UX   FOR SELECTED NODES      4547 TO     4547 BY        1
 REAL=  0.00000000       IMAG=  0.00000000    
 ADDITIONAL DOFS=  UY    UZ  

 SPECIFIED CONSTRAINT UX   FOR SELECTED NODES      4553 TO     4553 BY        1
 REAL=  0.00000000       IMAG=  0.00000000    
 ADDITIONAL DOFS=  UY    UZ  

 SPECIFIED CONSTRAINT UX   FOR SELECTED NODES      4552 TO     4552 BY        1
 REAL=  0.00000000       IMAG=  0.00000000    
 ADDITIONAL DOFS=  UY    UZ  

 SPECIFIED CONSTRAINT UX   FOR SELECTED NODES      4555 TO     4555 BY        1
 REAL=  0.00000000       IMAG=  0.00000000    
 ADDITIONAL DOFS=  UY    UZ  

 SPECIFIED CONSTRAINT UX   FOR SELECTED NODES      4554 TO     4554 BY        1
 REAL=  0.00000000       IMAG=  0.00000000    
 ADDITIONAL DOFS=  UY    UZ  

 SPECIFIED CONSTRAINT UX   FOR SELECTED NODES      4557 TO     4557 BY        1
 REAL=  0.00000000       IMAG=  0.00000000    
 ADDITIONAL DOFS=  UY    UZ  

 SPECIFIED CONSTRAINT UX   FOR SELECTED NODES      4556 TO     4556 BY        1
 REAL=  0.00000000       IMAG=  0.00000000    
 ADDITIONAL DOFS=  UY    UZ  

 SPECIFIED CONSTRAINT UX   FOR SELECTED NODES      4549 TO     4549 BY        1
 REAL=  0.00000000       IMAG=  0.00000000    
 ADDITIONAL DOFS=  UY    UZ  

 SPECIFIED CONSTRAINT UX   FOR SELECTED NODES      5090 TO     5090 BY        1
 REAL=  0.00000000       IMAG=  0.00000000    
 ADDITIONAL DOFS=  UY    UZ  

 SPECIFIED CONSTRAINT UX   FOR SELECTED NODES      5056 TO     5056 BY        1
 REAL=  0.00000000       IMAG=  0.00000000    
 ADDITIONAL DOFS=  UY    UZ  

 SPECIFIED CONSTRAINT UX   FOR SELECTED NODES      5136 TO     5136 BY        1
 REAL=  0.00000000       IMAG=  0.00000000    
 ADDITIONAL DOFS=  UY    UZ  


 ***** ROUTINE COMPLETED *****  CP =         1.781



 *****  ANSYS SOLUTION ROUTINE  *****

                       S O L U T I O N   O P T I O N S

   PROBLEM DIMENSIONALITY. . . . . . . . . . . . .3-D                  
   DEGREES OF FREEDOM. . . . . . UX   UY   UZ   HDSP
   ANALYSIS TYPE . . . . . . . . . . . . . . . . .STATIC (STEADY-STATE)
   GLOBALLY ASSEMBLED MATRIX . . . . . . . . . . .SYMMETRIC  

                      L O A D   S T E P   O P T I O N S

   LOAD STEP NUMBER. . . . . . . . . . . . . . . .     1
   TIME AT END OF THE LOAD STEP. . . . . . . . . .  1.0000    
   NUMBER OF SUBSTEPS. . . . . . . . . . . . . . .     1
   STEP CHANGE BOUNDARY CONDITIONS . . . . . . . .DEFAULT
   PRINT OUTPUT CONTROLS . . . . . . . . . . . . .NO PRINTOUT
   DATABASE OUTPUT CONTROLS. . . . . . . . . . . .ALL DATA WRITTEN
                                                  FOR THE LAST SUBSTEP


 *****  ANSYS SOLVE    COMMAND  *****

 *** NOTE ***                            CP =       1.812   TIME= 12:35:11
 There is no title defined for this analysis.                            

 *** WARNING ***                         CP =       1.812   TIME= 12:35:11
 Previous testing revealed that 811 of the 17745 selected elements       
 violate shape warning limits.  To review warning messages, please see   
 the output or error file, or issue the CHECK command.                   

 *** NOTE ***                            CP =       1.812   TIME= 12:35:11
 The model data was checked and warning messages were found.             
  Please review output or errors file (                                  
 D:\Development\diplom\orthodonology\ansys\result\file.err ) for these   
 warning messages.                                                       

 *** SELECTION OF ELEMENT TECHNOLOGIES FOR APPLICABLE ELEMENTS ***
                ---GIVE SUGGESTIONS ONLY---

 ELEMENT TYPE    1 IS SOLID285. NO SUGGESTION IS AVAILABLE.



 *** ANSYS - ENGINEERING ANALYSIS SYSTEM  RELEASE Release 17.2     17.2     ***
 ANSYS Multiphysics                                
 00000000  VERSION=WINDOWS x64   12:35:11  MAY 02, 2022 CP=      1.844

                                                                               



                       S O L U T I O N   O P T I O N S

   PROBLEM DIMENSIONALITY. . . . . . . . . . . . .3-D                  
   DEGREES OF FREEDOM. . . . . . UX   UY   UZ   HDSP
   ANALYSIS TYPE . . . . . . . . . . . . . . . . .STATIC (STEADY-STATE)
   GLOBALLY ASSEMBLED MATRIX . . . . . . . . . . .SYMMETRIC  

 *** NOTE ***                            CP =       1.844   TIME= 12:35:11
 Present time 0 is less than or equal to the previous time.  Time will   
 default to 1.                                                           

 *** NOTE ***                            CP =       1.844   TIME= 12:35:11
 The conditions for direct assembly have been met.  No .emat or .erot    
 files will be produced.                                                 

                      L O A D   S T E P   O P T I O N S

   LOAD STEP NUMBER. . . . . . . . . . . . . . . .     1
   TIME AT END OF THE LOAD STEP. . . . . . . . . .  1.0000    
   NUMBER OF SUBSTEPS. . . . . . . . . . . . . . .     1
   STEP CHANGE BOUNDARY CONDITIONS . . . . . . . .    NO
   PRINT OUTPUT CONTROLS . . . . . . . . . . . . .NO PRINTOUT
   DATABASE OUTPUT CONTROLS. . . . . . . . . . . .ALL DATA WRITTEN
                                                  FOR THE LAST SUBSTEP


 SOLUTION MONITORING INFO IS WRITTEN TO FILE= file.mntr                                                                                                                                                                                                                                                           


 Range of element maximum matrix coefficients in global coordinates
 Maximum = 23728043.2 at element 12622.                                  
 Minimum = 15071.3561 at element 9401.                                   

   *** ELEMENT MATRIX FORMULATION TIMES
  TYPE    NUMBER   ENAME      TOTAL CP  AVE CP

     1     17745  SOLID285      1.453   0.000082
 Time at end of element matrix formulation CP = 2.828125.                

 SPARSE MATRIX DIRECT SOLVER.
  Number of equations =       18426,    Maximum wavefront =    120
  Memory allocated for solver =         217.944 MB
  Memory required for in-core =          39.509 MB
  Memory required for out-of-core =      11.470 MB


 *** NOTE ***                            CP =       3.141   TIME= 12:35:12
 The Sparse Matrix solver is currently running in the in-core memory     
 mode.  This memory mode uses the most amount of memory in order to      
 avoid using the hard drive as much as possible, which most often        
 results in the fastest solution time.  This mode is recommended if      
 enough physical memory is present to accommodate all of the solver      
 data.                                                                   

 *** WARNING ***                         CP =       3.141   TIME= 12:35:12
 Pivoting has been activated for the Sparse Matrix solver.  The memory   
 required may greatly exceed the predicted amount.  In that event, use   
 the BCSOPTION command to change the memory mode and/or memory size      
 used by the Sparse Matrix solver.                                       
 Sparse solver maximum pivot= 19770383.9 at node 3457 UZ.                
 Sparse solver minimum pivot= 33989.4415 at node 755 UY.                 
 Sparse solver minimum pivot in absolute value= 33989.4415 at node 755   
 UY.                                                                     

   *** ELEMENT RESULT CALCULATION TIMES
  TYPE    NUMBER   ENAME      TOTAL CP  AVE CP

     1     17745  SOLID285      2.500   0.000141

   *** NODAL LOAD CALCULATION TIMES
  TYPE    NUMBER   ENAME      TOTAL CP  AVE CP

     1     17745  SOLID285      0.000   0.000000
 *** LOAD STEP     1   SUBSTEP     1  COMPLETED.    CUM ITER =      1
 *** TIME =   1.00000         TIME INC =   1.00000      NEW TRIANG MATRIX


 *** ANSYS BINARY FILE STATISTICS
  BUFFER SIZE USED= 16384
        6.438 MB WRITTEN ON ASSEMBLED MATRIX FILE: file.full
       13.688 MB WRITTEN ON RESULTS FILE: file.rst

 FINISH SOLUTION PROCESSING


 ***** ROUTINE COMPLETED *****  CP =         4.875



 *** ANSYS - ENGINEERING ANALYSIS SYSTEM  RELEASE Release 17.2     17.2     ***
 ANSYS Multiphysics                                
 00000000  VERSION=WINDOWS x64   12:35:13  MAY 02, 2022 CP=      4.875

                                                                               



          ***** ANSYS RESULTS INTERPRETATION (POST1) *****

 *** NOTE ***                            CP =       4.875   TIME= 12:35:13
 Reading results into the database (SET command) will update the current 
 displacement and force boundary conditions in the database with the     
 values from the results file for that load set.  Note that any          
 subsequent solutions will use these values unless action is taken to    
 either SAVE the current values or not overwrite them (/EXIT,NOSAVE).    

 Element faceting set to 1 facets per edge.

 SELECT ALL ENTITIES OF TYPE= ALL  AND BELOW

 *GET  NN        FROM  NODE  ITEM=COUN       VALUE=  5160.00000     

 *DO LOOP ON PARAMETER= I FROM  1.0000     TO  5160.0     BY  1.0000    

 *GET  NR        FROM  NODE  ITEM=NUM  MIN   VALUE=  1.00000000     

 *GET  NX        FROM  NODE       1  ITEM=LOC  X     VALUE=  90.4755783     

 *GET  NY        FROM  NODE       1  ITEM=LOC  Y     VALUE=  76.3203201     

 *GET  NZ        FROM  NODE       1  ITEM=LOC  Z     VALUE=  7.53678513     

 *GET  UX        FROM  NODE      1  ITEM=U    X     VALUE=-0.924224956E-04

 *GET  UY        FROM  NODE      1  ITEM=U    Y     VALUE= 0.257609096E-02

 *GET  UZ        FROM  NODE      1  ITEM=U    Z     VALUE= 0.382913182E-02

 USE MACRO FILE  res1

 OPENED FILE= Results_StressesOnly.txt FOR COMMAND FILE DATA 

  FILE OPENED FOR APPEND

  COMMAND FILE CLOSED 


 UNSELECT     FOR ITEM=NODE COMPONENT=    
  IN RANGE         1 TO          1 STEP          1

       5159  NODES (OF       5160  DEFINED) SELECTED BY  NSEL  COMMAND.

 *ENDDO  INDEX= I                               

 SELECT ALL ENTITIES OF TYPE= ALL  AND BELOW

 ***** END OF INPUT ENCOUNTERED *****


 NUMBER OF WARNING MESSAGES ENCOUNTERED=       1341
 NUMBER OF ERROR   MESSAGES ENCOUNTERED=          0



 ***** PROBLEM TERMINATED BY INDICATED ERROR(S) OR BY END OF INPUT DATA *****

+--------------------- A N S Y S   S T A T I S T I C S ------------------------+

Release: Release 17.2       Build: 17.2       Update: UP20160718   Platform: WINDOWS x64 
Date Run: 05/02/2022   Time: 12:35
Operating System: Windows 10  (Build: 19042)
Windows Process ID: 19980       

Processor Model: Intel(R) Core(TM) i7-10510U CPU @ 1.80GHz

Compiler: Intel(R) FORTRAN Compiler Version 15.0.2  (Build: 20150121)
          Intel(R) C/C++ Compiler Version 15.0.2  (Build: 20150121)
          Intel(R) Math Kernel Library Version 11.2.3 Product Build 20150413

Number of machines requested            :    1
Total number of cores available         :    8
Number of physical cores available      :    4
Number of processes requested           :    1
Number of threads per process requested :    2
Total number of cores requested         :    2 (Shared Memory Parallel)                    

GPU Acceleration: Not Requested

Job Name: file
Working Directory: D:\Development\diplom\orthodonology\ansys\result

Total CPU time for main thread                    :        8.3 seconds
Total CPU time summed for all threads             :       10.1 seconds

Elapsed time spent pre-processing model (/PREP7)  :        0.6 seconds
Elapsed time spent solution - preprocessing       :        0.1 seconds
Elapsed time spent computing solution             :        1.4 seconds
Elapsed time spent solution - postprocessing      :        0.0 seconds
Elapsed time spent post-processing model (/POST1) :        0.0 seconds
 
Equation solver used                              :            Sparse (symmetric)
Equation solver computational rate                :     9053.1 Mflops

Maximum total memory used                         :      282.0 MB
Maximum total memory allocated                    :     2112.0 MB
Maximum total memory available                    :         16 GB

+------------------ E N D   A N S Y S   S T A T I S T I C S -------------------+


 *---------------------------------------------------------------------------*
 |                                                                           |
 |                            ANSYS RUN COMPLETED                            |
 |                                                                           |
 |---------------------------------------------------------------------------|
 |                                                                           |
 | Ansys Release 17.2          Build 17.2         UP20160718     WINDOWS x64 |
 |                                                                           |
 |---------------------------------------------------------------------------|
 |                                                                           |
 | Database Requested(-db)  1024 MB    Scratch Memory Requested      1024 MB |
 | Maximum Database Used      46 MB    Maximum Scratch Memory Used    236 MB |
 |                                                                           |
 |---------------------------------------------------------------------------|
 |                                                                           |
 |        CP Time      (sec) =         10.078       Time  =  12:35:18        |
 |        Elapsed Time (sec) =         13.000       Date  =  05/02/2022      |
 |                                                                           |
 *---------------------------------------------------------------------------*
